10-Hydroxyusambarens
  -OEChem-01222104133D

 62 68  0     1  0  0  0  0  0999 V2000
   -7.1507   -2.1116   -1.3880 O   0  0  0  0  0  0  0  0  0  0  0  0
    2.2167    2.2349   -1.6610 N   0  0  2  0  0  0  0  0  0  0  0  0
    3.7797    0.2025    1.1068 N   0  0  0  0  0  0  0  0  0  0  0  0
   -1.4092    0.7388    3.0187 N   0  0  0  0  0  0  0  0  0  0  0  0
   -2.0256   -0.4193   -0.4286 N   0  0  0  0  0  0  0  0  0  0  0  0
    2.8400    2.1197   -0.3108 C   0  0  1  0  0  0  0  0  0  0  0  0
    1.9099    2.6455    0.7999 C   0  0  0  0  0  0  0  0  0  0  0  0
    0.4594    2.1381    0.7487 C   0  0  1  0  0  0  0  0  0  0  0  0
    3.3963    0.7452   -0.0868 C   0  0  0  0  0  0  0  0  0  0  0  0
    0.8520    1.6858   -1.7315 C   0  0  0  0  0  0  0  0  0  0  0  0
    3.0879    1.6455   -2.7079 C   0  0  0  0  0  0  0  0  0  0  0  0
   -0.0533    2.2520   -0.6677 C   0  0  0  0  0  0  0  0  0  0  0  0
    3.6862   -0.1625   -1.0854 C   0  0  0  0  0  0  0  0  0  0  0  0
    3.4084    0.1423   -2.5172 C   0  0  0  0  0  0  0  0  0  0  0  0
    0.2995    0.7170    1.2929 C   0  0  0  0  0  0  0  0  0  0  0  0
    4.2268   -1.3238   -0.4702 C   0  0  0  0  0  0  0  0  0  0  0  0
    4.2727   -1.0693    0.9045 C   0  0  0  0  0  0  0  0  0  0  0  0
   -1.2238    2.8391   -0.9599 C   0  0  0  0  0  0  0  0  0  0  0  0
   -1.1117    0.4539    1.7360 C   0  0  0  0  0  0  0  0  0  0  0  0
    4.6855   -2.5691   -0.9444 C   0  0  0  0  0  0  0  0  0  0  0  0
   -2.0826   -0.0556    0.8947 C   0  0  0  0  0  0  0  0  0  0  0  0
    4.7564   -2.0034    1.8277 C   0  0  0  0  0  0  0  0  0  0  0  0
   -2.1439    3.4094    0.0624 C   0  0  0  0  0  0  0  0  0  0  0  0
   -3.3847   -0.2895    1.3352 C   0  0  0  0  0  0  0  0  0  0  0  0
    5.1696   -3.5124   -0.0310 C   0  0  0  0  0  0  0  0  0  0  0  0
    5.2035   -3.2318    1.3332 C   0  0  0  0  0  0  0  0  0  0  0  0
   -4.1219   -0.8111    0.2253 C   0  0  0  0  0  0  0  0  0  0  0  0
   -3.2473   -0.8807   -0.8599 C   0  0  0  0  0  0  0  0  0  0  0  0
   -3.7013    0.0049    2.6708 C   0  0  0  0  0  0  0  0  0  0  0  0
   -2.6707    0.5131    3.4499 C   0  0  0  0  0  0  0  0  0  0  0  0
   -5.4562   -1.2319    0.0442 C   0  0  0  0  0  0  0  0  0  0  0  0
   -3.6391   -1.3502   -2.1188 C   0  0  0  0  0  0  0  0  0  0  0  0
   -5.8626   -1.7041   -1.2088 C   0  0  0  0  0  0  0  0  0  0  0  0
   -4.9658   -1.7614   -2.2730 C   0  0  0  0  0  0  0  0  0  0  0  0
    3.7115    2.7911   -0.3138 H   0  0  0  0  0  0  0  0  0  0  0  0
    2.3386    2.4656    1.7933 H   0  0  0  0  0  0  0  0  0  0  0  0
    1.8733    3.7407    0.6947 H   0  0  0  0  0  0  0  0  0  0  0  0
   -0.0689    2.8167    1.4272 H   0  0  0  0  0  0  0  0  0  0  0  0
    0.8517    0.5940   -1.6390 H   0  0  0  0  0  0  0  0  0  0  0  0
    0.4394    1.9091   -2.7237 H   0  0  0  0  0  0  0  0  0  0  0  0
    4.0305    2.2096   -2.7164 H   0  0  0  0  0  0  0  0  0  0  0  0
    2.6462    1.8031   -3.6997 H   0  0  0  0  0  0  0  0  0  0  0  0
    4.2717   -0.1255   -3.1367 H   0  0  0  0  0  0  0  0  0  0  0  0
    2.5609   -0.4660   -2.8546 H   0  0  0  0  0  0  0  0  0  0  0  0
    0.9468    0.5837    2.1697 H   0  0  0  0  0  0  0  0  0  0  0  0
    0.6143   -0.0479    0.5745 H   0  0  0  0  0  0  0  0  0  0  0  0
    3.7081    0.6541    2.0081 H   0  0  0  0  0  0  0  0  0  0  0  0
   -1.5413    2.9193   -1.9963 H   0  0  0  0  0  0  0  0  0  0  0  0
    4.6656   -2.8019   -2.0053 H   0  0  0  0  0  0  0  0  0  0  0  0
    4.7847   -1.7861    2.8902 H   0  0  0  0  0  0  0  0  0  0  0  0
   -2.0515    4.5000    0.0759 H   0  0  0  0  0  0  0  0  0  0  0  0
   -2.0253    3.0398    1.0797 H   0  0  0  0  0  0  0  0  0  0  0  0
   -3.1750    3.1722   -0.2239 H   0  0  0  0  0  0  0  0  0  0  0  0
    5.5236   -4.4745   -0.3919 H   0  0  0  0  0  0  0  0  0  0  0  0
    5.5843   -3.9788    2.0250 H   0  0  0  0  0  0  0  0  0  0  0  0
   -1.1998   -0.3697   -1.0081 H   0  0  0  0  0  0  0  0  0  0  0  0
   -4.6928   -0.1523    3.0795 H   0  0  0  0  0  0  0  0  0  0  0  0
   -2.8462    0.7632    4.4920 H   0  0  0  0  0  0  0  0  0  0  0  0
   -6.1573   -1.1879    0.8733 H   0  0  0  0  0  0  0  0  0  0  0  0
   -2.9410   -1.3949   -2.9481 H   0  0  0  0  0  0  0  0  0  0  0  0
   -5.2954   -2.1303   -3.2415 H   0  0  0  0  0  0  0  0  0  0  0  0
   -7.6347   -2.0051   -0.5510 H   0  0  0  0  0  0  0  0  0  0  0  0
  1 33  1  0  0  0  0
  1 62  1  0  0  0  0
  2  6  1  0  0  0  0
  2 10  1  0  0  0  0
  2 11  1  0  0  0  0
  3  9  1  0  0  0  0
  3 17  1  0  0  0  0
  3 47  1  0  0  0  0
  4 19  2  0  0  0  0
  4 30  1  0  0  0  0
  5 21  1  0  0  0  0
  5 28  1  0  0  0  0
  5 56  1  0  0  0  0
  6  7  1  0  0  0  0
  6  9  1  0  0  0  0
  6 35  1  0  0  0  0
  7  8  1  0  0  0  0
  7 36  1  0  0  0  0
  7 37  1  0  0  0  0
  8 12  1  0  0  0  0
  8 15  1  0  0  0  0
  8 38  1  0  0  0  0
  9 13  2  0  0  0  0
 10 12  1  0  0  0  0
 10 39  1  0  0  0  0
 10 40  1  0  0  0  0
 11 14  1  0  0  0  0
 11 41  1  0  0  0  0
 11 42  1  0  0  0  0
 12 18  2  0  0  0  0
 13 14  1  0  0  0  0
 13 16  1  0  0  0  0
 14 43  1  0  0  0  0
 14 44  1  0  0  0  0
 15 19  1  0  0  0  0
 15 45  1  0  0  0  0
 15 46  1  0  0  0  0
 16 17  1  0  0  0  0
 16 20  2  0  0  0  0
 17 22  2  0  0  0  0
 18 23  1  0  0  0  0
 18 48  1  0  0  0  0
 19 21  1  0  0  0  0
 20 25  1  0  0  0  0
 20 49  1  0  0  0  0
 21 24  2  0  0  0  0
 22 26  1  0  0  0  0
 22 50  1  0  0  0  0
 23 51  1  0  0  0  0
 23 52  1  0  0  0  0
 23 53  1  0  0  0  0
 24 27  1  0  0  0  0
 24 29  1  0  0  0  0
 25 26  2  0  0  0  0
 25 54  1  0  0  0  0
 26 55  1  0  0  0  0
 27 28  2  0  0  0  0
 27 31  1  0  0  0  0
 28 32  1  0  0  0  0
 29 30  2  0  0  0  0
 29 57  1  0  0  0  0
 30 58  1  0  0  0  0
 31 33  2  0  0  0  0
 31 59  1  0  0  0  0
 32 34  2  0  0  0  0
 32 60  1  0  0  0  0
 33 34  1  0  0  0  0
 34 61  1  0  0  0  0
M  END
> <PUBCHEM_COMPOUND_CID>
10433813

> <PUBCHEM_CONFORMER_RMSD>
0.8

> <PUBCHEM_CONFORMER_DIVERSEORDER>
2
7
24
5
25
21
3
20
13
9
23
22
18
16
10
6
19
4
17
27
15
14
12
11
8
26
1

> <PUBCHEM_MMFF94_PARTIAL_CHARGES>
43
1 -0.53
10 0.41
11 0.27
12 -0.28
13 -0.18
14 0.18
15 0.14
17 -0.15
18 -0.29
19 0.17
2 -0.81
20 -0.15
21 -0.15
22 -0.15
23 0.14
25 -0.15
26 -0.15
28 -0.15
29 -0.15
3 0.03
30 0.16
31 -0.15
32 -0.15
33 0.08
34 -0.15
4 -0.62
47 0.27
48 0.15
49 0.15
5 0.03
50 0.15
54 0.15
55 0.15
56 0.27
57 0.15
58 0.15
59 0.15
6 0.45
60 0.15
61 0.15
62 0.45
8 0.14
9 -0.33

> <PUBCHEM_EFFECTIVE_ROTOR_COUNT>
3

> <PUBCHEM_PHARMACOPHORE_FEATURES>
15
1 1 donor
1 2 cation
1 23 hydrophobe
1 3 cation
1 3 donor
1 4 acceptor
1 5 cation
1 5 donor
5 3 9 13 16 17 rings
5 5 21 24 27 28 rings
6 16 17 20 22 25 26 rings
6 2 6 7 8 10 12 rings
6 2 6 9 11 13 14 rings
6 27 28 31 32 33 34 rings
6 4 19 21 24 29 30 rings

> <PUBCHEM_HEAVY_ATOM_COUNT>
34

> <PUBCHEM_ATOM_DEF_STEREO_COUNT>
2

> <PUBCHEM_ATOM_UDEF_STEREO_COUNT>
0

> <PUBCHEM_BOND_DEF_STEREO_COUNT>
1

> <PUBCHEM_BOND_UDEF_STEREO_COUNT>
0

> <PUBCHEM_ISOTOPIC_ATOM_COUNT>
0

> <PUBCHEM_COMPONENT_COUNT>
1

> <PUBCHEM_CACTVS_TAUTO_COUNT>
22

> <PUBCHEM_CONFORMER_ID>
009F351500000002

> <PUBCHEM_MMFF94_ENERGY>
76.0025

> <PUBCHEM_FEATURE_SELFOVERLAP>
76.553

> <PUBCHEM_SHAPE_FINGERPRINT>
10319926 262 16128105425398870126
10622 236 18189050894106761278
10928967 22 18269005206399007886
11049842 53 13479398505540259904
11135926 11 17824567346696513820
11285246 1 17604145930629047467
11578080 2 18202270403500689025
11720765 8 16950548979535239316
11991303 11 17681271062528544181
12166972 35 18410288108007933430
12422481 6 18127710244162394473
12633046 712 17969241060793015819
12655387 17 17131843045487680675
12977781 61 18054192554248875240
1361 87 17386022645153099882
13692114 37 17697610900898147441
13782708 43 17915450813575623991
14068700 675 18263917762028596338
14114206 34 16951696770637357332
14251757 17 16370730378059040548
14429115 67 18343017804702877558
14508693 111 17631170960161986318
14537116 161 16443329971922821487
14705955 166 14189037556144203795
15163728 17 8286190687049801544
15351334 14 14635741655735129900
15484559 13 14601055765972529334
15721738 15 16515676694142017858
17349148 13 18131080358749313239
17809404 112 17823134712582648504
18603816 31 17759510076746491670
18681886 176 15911940511655233696
19311894 1 18189322486633217805
19315092 285 18130780200506356480
19438510 23 8213842787888448766
20775530 9 18116445734914762578
21458453 9 14475813385702069831
23536364 44 17385994023770120053
23559900 14 16008754631745861806
3004659 81 17488470848309970117
3027735 51 18190737527426167235
354706 35 18115313422231616846
3729539 64 18186798089313115323
3886686 26 16554554205381751615
437795 70 17604418588348740157
4394409 98 15792278303382644234
44062 13 18265613169676199596
44880168 125 17469877793278694882
46194498 28 16010468818087287278
463206 1 18410575093269513618
50009960 94 16340571934589514759
5081480 168 16733282165465002756
5223283 242 16805601426159011605
563151 248 18194407684914295201
57527573 199 14028245375029472893
59025328 239 18338221760779073084
59682541 52 18188480389490229807
613672 6 17894911802786464394
66674814 147 18410570673991175146
70251023 43 18335695048703661777

> <PUBCHEM_SHAPE_MULTIPOLES>
673.91
13.52
3.74
2.96
5.6
0.31
-0.88
-15.33
3.19
-3.1
0.78
1.77
0.04
-3.43

> <PUBCHEM_SHAPE_SELFOVERLAP>
1527.748

> <PUBCHEM_SHAPE_VOLUME>
351.7

> <PUBCHEM_COORDINATE_TYPE>
2
5
10

$$$$
