26-Homo-25-hydroxycholesterol
  -OEChem-12152007203D

 78 81  0     1  0  0  0  0  0999 V2000
    8.0903    1.1415   -1.0617 O   0  0  0  0  0  0  0  0  0  0  0  0
   -7.0078    0.1084   -2.0248 O   0  0  0  0  0  0  0  0  0  0  0  0
   -0.2109   -1.1132    0.4948 C   0  0  1  0  0  0  0  0  0  0  0  0
    0.3343    0.3200    0.6543 C   0  0  2  0  0  0  0  0  0  0  0  0
    1.8497    0.3711    0.8724 C   0  0  1  0  0  0  0  0  0  0  0  0
    2.5706   -0.3178   -0.3229 C   0  0  1  0  0  0  0  0  0  0  0  0
   -1.7194   -0.7914    0.3614 C   0  0  2  0  0  0  0  0  0  0  0  0
    0.4320   -1.7137   -0.7632 C   0  0  0  0  0  0  0  0  0  0  0  0
    4.1395   -0.3257   -0.1257 C   0  0  2  0  0  0  0  0  0  0  0  0
   -0.5810    0.9409    1.7051 C   0  0  0  0  0  0  0  0  0  0  0  0
    1.9676   -1.7073   -0.6685 C   0  0  0  0  0  0  0  0  0  0  0  0
   -1.9556    0.3046    1.4272 C   0  0  0  0  0  0  0  0  0  0  0  0
    2.3302    1.8232    1.0134 C   0  0  0  0  0  0  0  0  0  0  0  0
   -2.6800   -1.9642    0.4952 C   0  0  1  0  0  0  0  0  0  0  0  0
    0.0591   -2.0298    1.7138 C   0  0  0  0  0  0  0  0  0  0  0  0
    4.6338    1.0400    0.3717 C   0  0  0  0  0  0  0  0  0  0  0  0
    4.8026   -0.6380   -1.5005 C   0  0  0  0  0  0  0  0  0  0  0  0
    3.8088    1.9823    0.8600 C   0  0  0  0  0  0  0  0  0  0  0  0
    4.5718   -1.3951    0.9063 C   0  0  0  0  0  0  0  0  0  0  0  0
    6.1187    1.3082    0.2881 C   0  0  0  0  0  0  0  0  0  0  0  0
    6.3139   -0.4149   -1.5367 C   0  0  0  0  0  0  0  0  0  0  0  0
   -4.1189   -1.5234    0.8358 C   0  0  0  0  0  0  0  0  0  0  0  0
    6.6737    1.0015   -1.0993 C   0  0  2  0  0  0  0  0  0  0  0  0
   -2.6938   -2.7805   -0.8028 C   0  0  0  0  0  0  0  0  0  0  0  0
   -4.7284   -0.5784   -0.2065 C   0  0  0  0  0  0  0  0  0  0  0  0
   -6.1453   -0.1486    0.2010 C   0  0  0  0  0  0  0  0  0  0  0  0
   -6.8300    0.8177   -0.7900 C   0  0  1  0  0  0  0  0  0  0  0  0
   -6.0132    2.0890   -1.1032 C   0  0  0  0  0  0  0  0  0  0  0  0
   -8.2299    1.1699   -0.2695 C   0  0  0  0  0  0  0  0  0  0  0  0
   -5.7821    3.0239    0.0748 C   0  0  0  0  0  0  0  0  0  0  0  0
    0.1357    0.8683   -0.2824 H   0  0  0  0  0  0  0  0  0  0  0  0
    2.1008   -0.1511    1.8024 H   0  0  0  0  0  0  0  0  0  0  0  0
    2.3626    0.3143   -1.2018 H   0  0  0  0  0  0  0  0  0  0  0  0
   -1.8791   -0.3122   -0.6164 H   0  0  0  0  0  0  0  0  0  0  0  0
    0.1294   -1.1498   -1.6546 H   0  0  0  0  0  0  0  0  0  0  0  0
    0.1171   -2.7478   -0.9212 H   0  0  0  0  0  0  0  0  0  0  0  0
   -0.6221    2.0315    1.6183 H   0  0  0  0  0  0  0  0  0  0  0  0
   -0.2457    0.7014    2.7205 H   0  0  0  0  0  0  0  0  0  0  0  0
    2.2668   -2.4508    0.0762 H   0  0  0  0  0  0  0  0  0  0  0  0
    2.3673   -2.0557   -1.6275 H   0  0  0  0  0  0  0  0  0  0  0  0
   -2.3353   -0.0981    2.3722 H   0  0  0  0  0  0  0  0  0  0  0  0
   -2.6571    1.0695    1.0817 H   0  0  0  0  0  0  0  0  0  0  0  0
    2.0362    2.2030    1.9993 H   0  0  0  0  0  0  0  0  0  0  0  0
    1.8439    2.4656    0.2688 H   0  0  0  0  0  0  0  0  0  0  0  0
   -2.3849   -2.6315    1.3112 H   0  0  0  0  0  0  0  0  0  0  0  0
   -0.4787   -1.7058    2.6105 H   0  0  0  0  0  0  0  0  0  0  0  0
   -0.2428   -3.0618    1.5026 H   0  0  0  0  0  0  0  0  0  0  0  0
    1.1181   -2.0718    1.9821 H   0  0  0  0  0  0  0  0  0  0  0  0
    4.3514   -0.0059   -2.2775 H   0  0  0  0  0  0  0  0  0  0  0  0
    4.6032   -1.6757   -1.7935 H   0  0  0  0  0  0  0  0  0  0  0  0
    4.2160    2.9393    1.1774 H   0  0  0  0  0  0  0  0  0  0  0  0
    4.3832   -2.4096    0.5407 H   0  0  0  0  0  0  0  0  0  0  0  0
    4.0449   -1.2774    1.8588 H   0  0  0  0  0  0  0  0  0  0  0  0
    5.6427   -1.3485    1.1307 H   0  0  0  0  0  0  0  0  0  0  0  0
    6.3567    2.3497    0.5406 H   0  0  0  0  0  0  0  0  0  0  0  0
    6.6445    0.7095    1.0427 H   0  0  0  0  0  0  0  0  0  0  0  0
    6.8291   -1.1486   -0.9047 H   0  0  0  0  0  0  0  0  0  0  0  0
    6.6892   -0.5925   -2.5521 H   0  0  0  0  0  0  0  0  0  0  0  0
   -4.7521   -2.4179    0.9110 H   0  0  0  0  0  0  0  0  0  0  0  0
   -4.1622   -1.0625    1.8284 H   0  0  0  0  0  0  0  0  0  0  0  0
    6.2849    1.7284   -1.8230 H   0  0  0  0  0  0  0  0  0  0  0  0
   -2.7170   -2.1501   -1.6975 H   0  0  0  0  0  0  0  0  0  0  0  0
   -1.8219   -3.4343   -0.8654 H   0  0  0  0  0  0  0  0  0  0  0  0
   -3.5654   -3.4441   -0.8400 H   0  0  0  0  0  0  0  0  0  0  0  0
   -4.1032    0.3057   -0.3313 H   0  0  0  0  0  0  0  0  0  0  0  0
   -4.7765   -1.0770   -1.1807 H   0  0  0  0  0  0  0  0  0  0  0  0
    8.4275    0.9469   -1.9528 H   0  0  0  0  0  0  0  0  0  0  0  0
   -6.7580   -1.0557    0.2927 H   0  0  0  0  0  0  0  0  0  0  0  0
   -6.1074    0.3100    1.1969 H   0  0  0  0  0  0  0  0  0  0  0  0
   -5.0524    1.8238   -1.5594 H   0  0  0  0  0  0  0  0  0  0  0  0
   -6.5325    2.6562   -1.8882 H   0  0  0  0  0  0  0  0  0  0  0  0
   -8.8572    0.2727   -0.2098 H   0  0  0  0  0  0  0  0  0  0  0  0
   -8.1988    1.6289    0.7233 H   0  0  0  0  0  0  0  0  0  0  0  0
   -8.7410    1.8560   -0.9546 H   0  0  0  0  0  0  0  0  0  0  0  0
   -7.4823    0.6914   -2.6417 H   0  0  0  0  0  0  0  0  0  0  0  0
   -6.7230    3.4141    0.4727 H   0  0  0  0  0  0  0  0  0  0  0  0
   -5.1804    3.8813   -0.2443 H   0  0  0  0  0  0  0  0  0  0  0  0
   -5.2416    2.5228    0.8830 H   0  0  0  0  0  0  0  0  0  0  0  0
  1 23  1  0  0  0  0
  1 67  1  0  0  0  0
  2 27  1  0  0  0  0
  2 75  1  0  0  0  0
  3  4  1  0  0  0  0
  3  7  1  0  0  0  0
  3  8  1  0  0  0  0
  3 15  1  0  0  0  0
  4  5  1  0  0  0  0
  4 10  1  0  0  0  0
  4 31  1  0  0  0  0
  5  6  1  0  0  0  0
  5 13  1  0  0  0  0
  5 32  1  0  0  0  0
  6  9  1  0  0  0  0
  6 11  1  0  0  0  0
  6 33  1  0  0  0  0
  7 12  1  0  0  0  0
  7 14  1  0  0  0  0
  7 34  1  0  0  0  0
  8 11  1  0  0  0  0
  8 35  1  0  0  0  0
  8 36  1  0  0  0  0
  9 16  1  0  0  0  0
  9 17  1  0  0  0  0
  9 19  1  0  0  0  0
 10 12  1  0  0  0  0
 10 37  1  0  0  0  0
 10 38  1  0  0  0  0
 11 39  1  0  0  0  0
 11 40  1  0  0  0  0
 12 41  1  0  0  0  0
 12 42  1  0  0  0  0
 13 18  1  0  0  0  0
 13 43  1  0  0  0  0
 13 44  1  0  0  0  0
 14 22  1  0  0  0  0
 14 24  1  0  0  0  0
 14 45  1  0  0  0  0
 15 46  1  0  0  0  0
 15 47  1  0  0  0  0
 15 48  1  0  0  0  0
 16 18  2  0  0  0  0
 16 20  1  0  0  0  0
 17 21  1  0  0  0  0
 17 49  1  0  0  0  0
 17 50  1  0  0  0  0
 18 51  1  0  0  0  0
 19 52  1  0  0  0  0
 19 53  1  0  0  0  0
 19 54  1  0  0  0  0
 20 23  1  0  0  0  0
 20 55  1  0  0  0  0
 20 56  1  0  0  0  0
 21 23  1  0  0  0  0
 21 57  1  0  0  0  0
 21 58  1  0  0  0  0
 22 25  1  0  0  0  0
 22 59  1  0  0  0  0
 22 60  1  0  0  0  0
 23 61  1  0  0  0  0
 24 62  1  0  0  0  0
 24 63  1  0  0  0  0
 24 64  1  0  0  0  0
 25 26  1  0  0  0  0
 25 65  1  0  0  0  0
 25 66  1  0  0  0  0
 26 27  1  0  0  0  0
 26 68  1  0  0  0  0
 26 69  1  0  0  0  0
 27 28  1  0  0  0  0
 27 29  1  0  0  0  0
 28 30  1  0  0  0  0
 28 70  1  0  0  0  0
 28 71  1  0  0  0  0
 29 72  1  0  0  0  0
 29 73  1  0  0  0  0
 29 74  1  0  0  0  0
 30 76  1  0  0  0  0
 30 77  1  0  0  0  0
 30 78  1  0  0  0  0
M  END
> <PUBCHEM_COMPOUND_CID>
91692439

> <PUBCHEM_CONFORMER_RMSD>
1

> <PUBCHEM_CONFORMER_DIVERSEORDER>
1
27
22
23
21
19
28
26
18
6
4
12
16
25
8
14
17
2
10
5
15
13
20
24
11
3
29
9
7

> <PUBCHEM_MMFF94_PARTIAL_CHARGES>
12
1 -0.68
13 0.14
16 -0.28
18 -0.29
2 -0.68
20 0.14
23 0.28
27 0.28
51 0.15
67 0.4
75 0.4
9 0.14

> <PUBCHEM_EFFECTIVE_ROTOR_COUNT>
8

> <PUBCHEM_PHARMACOPHORE_FEATURES>
11
1 1 acceptor
1 1 donor
1 2 acceptor
1 2 donor
1 24 hydrophobe
1 30 hydrophobe
4 14 22 25 26 hydrophobe
5 3 4 7 10 12 rings
6 3 4 5 6 8 11 rings
6 5 6 9 13 16 18 rings
6 9 16 17 20 21 23 rings

> <PUBCHEM_HEAVY_ATOM_COUNT>
30

> <PUBCHEM_ATOM_DEF_STEREO_COUNT>
8

> <PUBCHEM_ATOM_UDEF_STEREO_COUNT>
1

> <PUBCHEM_BOND_DEF_STEREO_COUNT>
0

> <PUBCHEM_BOND_UDEF_STEREO_COUNT>
0

> <PUBCHEM_ISOTOPIC_ATOM_COUNT>
0

> <PUBCHEM_COMPONENT_COUNT>
1

> <PUBCHEM_CACTVS_TAUTO_COUNT>
1

> <PUBCHEM_CONFORMER_ID>
05771D9700000001

> <PUBCHEM_MMFF94_ENERGY>
91.621

> <PUBCHEM_FEATURE_SELFOVERLAP>
55.923

> <PUBCHEM_SHAPE_FINGERPRINT>
10 15 7853567994352011294
10190206 1 18271813380349658145
10554248 39 18188193309080590039
10693767 8 17346041061220127734
10763959 59 18410013281772465396
10835480 77 17987514973932641224
11135926 11 17417824945350204479
11991303 11 17418084469086468463
12011746 2 18272661181613928194
12838862 33 17917706938457707768
13540713 4 17557693944279161779
13668630 136 16056873646582538893
13690498 29 18058160812684941879
13782708 43 11887956540400655087
14028597 1 14923934635543610045
14068700 675 11959726084500341291
14251764 18 14562534006904770763
14294032 229 17822570495635695388
14849402 71 14201695198532854511
14856354 85 16733271248286409883
14931854 50 18272101491588124894
15082195 135 18412554219132813556
15183329 4 18272651229942588441
15188451 53 12103846756848078555
15352257 5 9223227455956629885
15510800 12 12031506653031769701
15604295 49 18264768930195462172
16728433 281 18337679602678792900
2026 5 15481571702336313308
20715895 44 18341891904833035987
21033648 29 18262227941268294664
21267235 1 17916322687272082714
21279426 13 18201159939716038419
21424621 283 17894631439879189971
21637258 2 13542465353973235675
21792961 116 18342747307662945675
21859007 373 18341036480713764120
22122407 14 17023482926473039661
2215653 11 17918278666485570482
22224240 67 13479133497805193513
23559900 14 17988644163715295656
23569914 152 17195457286827896951
23576562 1 18198899400171472493
255183 313 13407083608790947473
2838139 119 18410564064599878327
3004659 81 18272934964014087594
3009799 131 18201720664834033434
335352 9 18060145374425170914
3633792 109 17775570853372487096
392239 28 11602830060643069439
4015057 19 17203046391472455587
4058900 60 18113902624285632779
4073 2 17821452369730136011
474113 269 18270963420066563550
5104073 3 12685390615704827388
5283173 99 18412542120124947281
57527295 17 18263354940181246819
59682541 35 7925627779002595542
59755656 215 18342176652516816852
6328613 192 18259706692069790421
9953998 17 10953454125223035749

> <PUBCHEM_SHAPE_MULTIPOLES>
605.65
21.1
2.57
1.51
11.67
0.14
0.08
12.04
10.47
2.12
-0.1
-0.24
-0.06
0.97

> <PUBCHEM_SHAPE_SELFOVERLAP>
1254.151

> <PUBCHEM_SHAPE_VOLUME>
345.2

> <PUBCHEM_COORDINATE_TYPE>
2
5
10

$$$$
