4prime-O-methylbavachalcone
  -OEChem-12162008093D

 50 51  0     0  0  0  0  0  0999 V2000
   -5.3917    0.0119    0.4059 O   0  0  0  0  0  0  0  0  0  0  0  0
   -2.0667    3.3282    1.1619 O   0  0  0  0  0  0  0  0  0  0  0  0
   -0.0669    3.1035   -1.0870 O   0  0  0  0  0  0  0  0  0  0  0  0
    6.8255   -1.4181    0.7239 O   0  0  0  0  0  0  0  0  0  0  0  0
   -3.2651   -0.1950   -0.6807 C   0  0  0  0  0  0  0  0  0  0  0  0
   -3.6909   -1.4746   -1.3562 C   0  0  0  0  0  0  0  0  0  0  0  0
   -4.1369    0.4870    0.1682 C   0  0  0  0  0  0  0  0  0  0  0  0
   -1.9845    0.3062   -0.9139 C   0  0  0  0  0  0  0  0  0  0  0  0
   -1.5755    1.4890   -0.2982 C   0  0  0  0  0  0  0  0  0  0  0  0
   -2.4474    2.1708    0.5508 C   0  0  0  0  0  0  0  0  0  0  0  0
   -3.7281    1.6698    0.7840 C   0  0  0  0  0  0  0  0  0  0  0  0
   -3.7006   -2.6436   -0.4118 C   0  0  0  0  0  0  0  0  0  0  0  0
   -2.6884   -3.4847   -0.1259 C   0  0  0  0  0  0  0  0  0  0  0  0
   -0.2347    1.9964   -0.5564 C   0  0  0  0  0  0  0  0  0  0  0  0
    0.9406    1.1342   -0.1944 C   0  0  0  0  0  0  0  0  0  0  0  0
   -2.7640   -4.6393    0.8323 C   0  0  0  0  0  0  0  0  0  0  0  0
   -1.3484   -3.3180   -0.7922 C   0  0  0  0  0  0  0  0  0  0  0  0
    3.4057    0.7713   -0.1364 C   0  0  0  0  0  0  0  0  0  0  0  0
    2.1919    1.5497   -0.4403 C   0  0  0  0  0  0  0  0  0  0  0  0
   -6.2161    0.7727    1.2869 C   0  0  0  0  0  0  0  0  0  0  0  0
    3.3545   -0.2647    0.7963 C   0  0  0  0  0  0  0  0  0  0  0  0
    4.6060    1.0711   -0.7806 C   0  0  0  0  0  0  0  0  0  0  0  0
    5.7040   -0.7004    0.4411 C   0  0  0  0  0  0  0  0  0  0  0  0
    4.5036   -1.0005    1.0852 C   0  0  0  0  0  0  0  0  0  0  0  0
    5.7553    0.3353   -0.4917 C   0  0  0  0  0  0  0  0  0  0  0  0
    8.0187   -1.0582    0.0291 C   0  0  0  0  0  0  0  0  0  0  0  0
   -4.7025   -1.3461   -1.7643 H   0  0  0  0  0  0  0  0  0  0  0  0
   -3.0790   -1.6716   -2.2433 H   0  0  0  0  0  0  0  0  0  0  0  0
   -1.3088   -0.2165   -1.5864 H   0  0  0  0  0  0  0  0  0  0  0  0
   -4.3619    2.2421    1.4529 H   0  0  0  0  0  0  0  0  0  0  0  0
   -4.6501   -2.8139    0.0945 H   0  0  0  0  0  0  0  0  0  0  0  0
    0.7109    0.1738    0.2524 H   0  0  0  0  0  0  0  0  0  0  0  0
   -2.5667   -5.5822    0.3124 H   0  0  0  0  0  0  0  0  0  0  0  0
   -2.0275   -4.5189    1.6331 H   0  0  0  0  0  0  0  0  0  0  0  0
   -3.7533   -4.7133    1.2958 H   0  0  0  0  0  0  0  0  0  0  0  0
   -0.6006   -3.0174   -0.0502 H   0  0  0  0  0  0  0  0  0  0  0  0
   -1.0296   -4.2730   -1.2252 H   0  0  0  0  0  0  0  0  0  0  0  0
   -1.3200   -2.5907   -1.6033 H   0  0  0  0  0  0  0  0  0  0  0  0
    2.3664    2.5141   -0.9113 H   0  0  0  0  0  0  0  0  0  0  0  0
   -2.7983    3.6579    1.7111 H   0  0  0  0  0  0  0  0  0  0  0  0
   -7.1752    0.2494    1.3609 H   0  0  0  0  0  0  0  0  0  0  0  0
   -6.4294    1.7681    0.8825 H   0  0  0  0  0  0  0  0  0  0  0  0
   -5.7984    0.8117    2.2987 H   0  0  0  0  0  0  0  0  0  0  0  0
    2.4483   -0.5208    1.3371 H   0  0  0  0  0  0  0  0  0  0  0  0
    4.6631    1.8745   -1.5111 H   0  0  0  0  0  0  0  0  0  0  0  0
    4.4594   -1.8034    1.8162 H   0  0  0  0  0  0  0  0  0  0  0  0
    6.6537    0.6210   -1.0281 H   0  0  0  0  0  0  0  0  0  0  0  0
    8.8100   -1.7311    0.3757 H   0  0  0  0  0  0  0  0  0  0  0  0
    8.3355   -0.0388    0.2747 H   0  0  0  0  0  0  0  0  0  0  0  0
    7.9179   -1.2128   -1.0506 H   0  0  0  0  0  0  0  0  0  0  0  0
  1  7  1  0  0  0  0
  1 20  1  0  0  0  0
  2 10  1  0  0  0  0
  2 40  1  0  0  0  0
  3 14  2  0  0  0  0
  4 23  1  0  0  0  0
  4 26  1  0  0  0  0
  5  6  1  0  0  0  0
  5  7  1  0  0  0  0
  5  8  2  0  0  0  0
  6 12  1  0  0  0  0
  6 27  1  0  0  0  0
  6 28  1  0  0  0  0
  7 11  2  0  0  0  0
  8  9  1  0  0  0  0
  8 29  1  0  0  0  0
  9 10  2  0  0  0  0
  9 14  1  0  0  0  0
 10 11  1  0  0  0  0
 11 30  1  0  0  0  0
 12 13  2  0  0  0  0
 12 31  1  0  0  0  0
 13 16  1  0  0  0  0
 13 17  1  0  0  0  0
 14 15  1  0  0  0  0
 15 19  2  0  0  0  0
 15 32  1  0  0  0  0
 16 33  1  0  0  0  0
 16 34  1  0  0  0  0
 16 35  1  0  0  0  0
 17 36  1  0  0  0  0
 17 37  1  0  0  0  0
 17 38  1  0  0  0  0
 18 19  1  0  0  0  0
 18 21  2  0  0  0  0
 18 22  1  0  0  0  0
 19 39  1  0  0  0  0
 20 41  1  0  0  0  0
 20 42  1  0  0  0  0
 20 43  1  0  0  0  0
 21 24  1  0  0  0  0
 21 44  1  0  0  0  0
 22 25  2  0  0  0  0
 22 45  1  0  0  0  0
 23 24  2  0  0  0  0
 23 25  1  0  0  0  0
 24 46  1  0  0  0  0
 25 47  1  0  0  0  0
 26 48  1  0  0  0  0
 26 49  1  0  0  0  0
 26 50  1  0  0  0  0
M  END
> <PUBCHEM_COMPOUND_CID>
42607530

> <PUBCHEM_CONFORMER_RMSD>
1

> <PUBCHEM_CONFORMER_DIVERSEORDER>
1
63
13
12
42
54
52
14
22
55
50
25
49
60
36
6
28
27
57
15
18
37
33
3
19
58
32
11
26
5
40
4
56
41
17
35
30
16
53
51
39
61
45
29
44
64
38
8
24
48
7
62
2
34
23
43
10
9
21
59
31
20
47
46

> <PUBCHEM_MMFF94_PARTIAL_CHARGES>
36
1 -0.36
10 0.08
11 -0.15
12 -0.29
13 -0.28
14 0.47
15 -0.14
16 0.14
17 0.14
18 0.03
19 -0.18
2 -0.53
20 0.28
21 -0.15
22 -0.15
23 0.08
24 -0.15
25 -0.15
26 0.28
29 0.15
3 -0.57
30 0.15
31 0.15
32 0.15
39 0.15
4 -0.36
40 0.45
44 0.15
45 0.15
46 0.15
47 0.15
5 -0.14
6 0.28
7 0.08
8 -0.15
9 0.09

> <PUBCHEM_EFFECTIVE_ROTOR_COUNT>
7

> <PUBCHEM_PHARMACOPHORE_FEATURES>
7
1 1 acceptor
1 2 donor
1 3 acceptor
1 4 acceptor
3 13 16 17 hydrophobe
6 18 21 22 23 24 25 rings
6 5 7 8 9 10 11 rings

> <PUBCHEM_HEAVY_ATOM_COUNT>
26

> <PUBCHEM_ATOM_DEF_STEREO_COUNT>
0

> <PUBCHEM_ATOM_UDEF_STEREO_COUNT>
0

> <PUBCHEM_BOND_DEF_STEREO_COUNT>
1

> <PUBCHEM_BOND_UDEF_STEREO_COUNT>
0

> <PUBCHEM_ISOTOPIC_ATOM_COUNT>
0

> <PUBCHEM_COMPONENT_COUNT>
1

> <PUBCHEM_CACTVS_TAUTO_COUNT>
5

> <PUBCHEM_CONFORMER_ID>
028A23AA00000001

> <PUBCHEM_MMFF94_ENERGY>
90.9578

> <PUBCHEM_FEATURE_SELFOVERLAP>
35.522

> <PUBCHEM_SHAPE_FINGERPRINT>
10305334 12 18412829067011955255
1100329 8 18339647853778656169
11524674 6 17632293458401671495
12633257 1 18131074843969172265
13726171 33 17838089191570275204
14117953 113 18337105666503918885
14705955 166 16988286356856364249
14844126 61 18201433735718810079
14866123 147 18339646745825293587
15042514 8 18338801221029547167
15250474 111 18408598176274664646
15297060 5 18131070411394462570
15320294 125 18260823774525358254
15348495 7 17917422151533918976
15537594 2 18040995141949996610
15728490 51 18408882971856908212
15728490 83 18189903187069268691
15799311 1 18339657663505189286
16110190 28 18410855499078266710
17780758 139 18272084989517035296
19246450 95 18196384628322312153
20771845 38 18338800014418603131
20775530 9 17901658590523016783
21267235 1 18260272906842097180
21403212 168 18271530802362215889
23466295 7 17970070156901199691
23522609 53 18118997748827767660
23559900 14 18269825579137736057
312425 54 18273208716597525736
3383291 50 18271806878333758583
351380 3 18259984864269560360
4073 2 18267020751230100728
463206 1 18260548965231882674
484985 159 18336827606464538295
5104073 3 18059012907576909640
5486654 36 18263368165001845643
559249 180 18334294219667213717
6371380 46 18272363153654482665
9896288 288 18199198278487808161
9953998 17 18130780158121192456
999808 66 17822021942796999011

> <PUBCHEM_SHAPE_MULTIPOLES>
511.59
16.45
4.34
1.13
27.95
4.1
-0.04
5.58
-3.46
-5.88
-0.36
-0.55
-0.03
-1.8

> <PUBCHEM_SHAPE_SELFOVERLAP>
1077.986

> <PUBCHEM_SHAPE_VOLUME>
288.6

> <PUBCHEM_COORDINATE_TYPE>
2
5
10

$$$$
