5.alpha-Cholest-8-en-3-one, 14-methyl
  -OEChem-12152007183D

 81 84  0     1  0  0  0  0  0999 V2000
    4.3499    2.2139   -0.2438 O   0  0  0  0  0  0  0  0  0  0  0  0
    7.0844   -1.9202   -0.6170 O   0  0  0  0  0  0  0  0  0  0  0  0
    3.7725    3.5764    1.5303 O   0  0  0  0  0  0  0  0  0  0  0  0
   -1.2049   -0.5554   -0.1066 C   0  0  1  0  0  0  0  0  0  0  0  0
   -0.2289    0.4116   -0.8626 C   0  0  2  0  0  0  0  0  0  0  0  0
   -2.5788   -0.0952   -0.6505 C   0  0  2  0  0  0  0  0  0  0  0  0
    1.1973    0.1977   -0.3708 C   0  0  0  0  0  0  0  0  0  0  0  0
   -0.9332    1.7616   -0.6152 C   0  0  0  0  0  0  0  0  0  0  0  0
   -0.8093   -1.9947   -0.4387 C   0  0  0  0  0  0  0  0  0  0  0  0
   -2.4425    1.4455   -0.7090 C   0  0  0  0  0  0  0  0  0  0  0  0
    1.6225   -1.0551   -0.0586 C   0  0  0  0  0  0  0  0  0  0  0  0
    3.0718   -1.3257    0.4069 C   0  0  2  0  0  0  0  0  0  0  0  0
    0.6723   -2.2595   -0.0947 C   0  0  0  0  0  0  0  0  0  0  0  0
    4.0148   -0.1979   -0.1283 C   0  0  1  0  0  0  0  0  0  0  0  0
   -3.8134   -0.5489    0.1197 C   0  0  1  0  0  0  0  0  0  0  0  0
    2.0864    1.4172   -0.3235 C   0  0  0  0  0  0  0  0  0  0  0  0
   -1.1764   -0.3872    1.4471 C   0  0  0  0  0  0  0  0  0  0  0  0
   -0.1582    0.2103   -2.4087 C   0  0  0  0  0  0  0  0  0  0  0  0
    3.4867    1.1909    0.2507 C   0  0  2  0  0  0  0  0  0  0  0  0
    3.6278   -2.6678   -0.1492 C   0  0  0  0  0  0  0  0  0  0  0  0
    5.4799   -0.3898    0.2860 C   0  0  0  0  0  0  0  0  0  0  0  0
    3.0407   -1.3837    1.9545 C   0  0  0  0  0  0  0  0  0  0  0  0
   -5.0852    0.0407   -0.5265 C   0  0  0  0  0  0  0  0  0  0  0  0
    5.0855   -2.9341    0.2179 C   0  0  0  0  0  0  0  0  0  0  0  0
   -3.8523   -2.0788    0.1864 C   0  0  0  0  0  0  0  0  0  0  0  0
    5.9678   -1.7594   -0.1247 C   0  0  0  0  0  0  0  0  0  0  0  0
   -6.3154   -0.0022    0.3854 C   0  0  0  0  0  0  0  0  0  0  0  0
   -7.5933    0.5187   -0.2857 C   0  0  0  0  0  0  0  0  0  0  0  0
    4.3948    3.3581    0.4996 C   0  0  0  0  0  0  0  0  0  0  0  0
   -8.8533    0.5666    0.5992 C   0  0  0  0  0  0  0  0  0  0  0  0
    5.3361    4.3362   -0.1355 C   0  0  0  0  0  0  0  0  0  0  0  0
   -9.1857   -0.8424    1.0994 C   0  0  0  0  0  0  0  0  0  0  0  0
  -10.0606    1.1525   -0.1335 C   0  0  0  0  0  0  0  0  0  0  0  0
   -2.6938   -0.4607   -1.6802 H   0  0  0  0  0  0  0  0  0  0  0  0
   -0.7044    2.1591    0.3806 H   0  0  0  0  0  0  0  0  0  0  0  0
   -0.6463    2.5345   -1.3370 H   0  0  0  0  0  0  0  0  0  0  0  0
   -1.3926   -2.7432    0.0990 H   0  0  0  0  0  0  0  0  0  0  0  0
   -0.9770   -2.2069   -1.5015 H   0  0  0  0  0  0  0  0  0  0  0  0
   -2.8518    1.8285   -1.6509 H   0  0  0  0  0  0  0  0  0  0  0  0
   -2.9667    1.9494    0.1110 H   0  0  0  0  0  0  0  0  0  0  0  0
    0.6985   -2.7380    0.8922 H   0  0  0  0  0  0  0  0  0  0  0  0
    1.0455   -2.9984   -0.8131 H   0  0  0  0  0  0  0  0  0  0  0  0
    4.0118   -0.2513   -1.2298 H   0  0  0  0  0  0  0  0  0  0  0  0
   -3.7763   -0.1654    1.1466 H   0  0  0  0  0  0  0  0  0  0  0  0
    2.1755    1.8221   -1.3401 H   0  0  0  0  0  0  0  0  0  0  0  0
    1.6078    2.2052    0.2695 H   0  0  0  0  0  0  0  0  0  0  0  0
   -0.1669   -0.4463    1.8634 H   0  0  0  0  0  0  0  0  0  0  0  0
   -1.7550   -1.1669    1.9510 H   0  0  0  0  0  0  0  0  0  0  0  0
   -1.5857    0.5750    1.7715 H   0  0  0  0  0  0  0  0  0  0  0  0
   -1.1305    0.2982   -2.9014 H   0  0  0  0  0  0  0  0  0  0  0  0
    0.4850    0.9726   -2.8666 H   0  0  0  0  0  0  0  0  0  0  0  0
    0.2624   -0.7620   -2.6872 H   0  0  0  0  0  0  0  0  0  0  0  0
    3.4453    1.2457    1.3458 H   0  0  0  0  0  0  0  0  0  0  0  0
    3.0358   -3.5165    0.2149 H   0  0  0  0  0  0  0  0  0  0  0  0
    3.5362   -2.6693   -1.2442 H   0  0  0  0  0  0  0  0  0  0  0  0
    6.1129    0.3521   -0.2145 H   0  0  0  0  0  0  0  0  0  0  0  0
    5.6256   -0.2719    1.3640 H   0  0  0  0  0  0  0  0  0  0  0  0
    4.0397   -1.4368    2.3954 H   0  0  0  0  0  0  0  0  0  0  0  0
    2.5403   -0.5113    2.3895 H   0  0  0  0  0  0  0  0  0  0  0  0
    2.4958   -2.2680    2.3053 H   0  0  0  0  0  0  0  0  0  0  0  0
   -4.9384    1.0880   -0.8093 H   0  0  0  0  0  0  0  0  0  0  0  0
   -5.3017   -0.4999   -1.4570 H   0  0  0  0  0  0  0  0  0  0  0  0
    5.1949   -3.1443    1.2867 H   0  0  0  0  0  0  0  0  0  0  0  0
    5.4419   -3.8131   -0.3305 H   0  0  0  0  0  0  0  0  0  0  0  0
   -3.2070   -2.4718    0.9734 H   0  0  0  0  0  0  0  0  0  0  0  0
   -4.8543   -2.4372    0.4422 H   0  0  0  0  0  0  0  0  0  0  0  0
   -3.5946   -2.5386   -0.7732 H   0  0  0  0  0  0  0  0  0  0  0  0
   -6.1170    0.5923    1.2855 H   0  0  0  0  0  0  0  0  0  0  0  0
   -6.4811   -1.0313    0.7153 H   0  0  0  0  0  0  0  0  0  0  0  0
   -7.7989   -0.0938   -1.1736 H   0  0  0  0  0  0  0  0  0  0  0  0
   -7.3972    1.5335   -0.6561 H   0  0  0  0  0  0  0  0  0  0  0  0
   -8.6456    1.2013    1.4697 H   0  0  0  0  0  0  0  0  0  0  0  0
    6.3412    3.9091   -0.1773 H   0  0  0  0  0  0  0  0  0  0  0  0
    5.3702    5.2495    0.4654 H   0  0  0  0  0  0  0  0  0  0  0  0
    4.9838    4.5917   -1.1380 H   0  0  0  0  0  0  0  0  0  0  0  0
   -9.2912   -1.5480    0.2683 H   0  0  0  0  0  0  0  0  0  0  0  0
  -10.1278   -0.8405    1.6590 H   0  0  0  0  0  0  0  0  0  0  0  0
   -8.4160   -1.2207    1.7787 H   0  0  0  0  0  0  0  0  0  0  0  0
  -10.3276    0.5463   -1.0058 H   0  0  0  0  0  0  0  0  0  0  0  0
  -10.9329    1.2022    0.5266 H   0  0  0  0  0  0  0  0  0  0  0  0
   -9.8448    2.1684   -0.4808 H   0  0  0  0  0  0  0  0  0  0  0  0
  1 19  1  0  0  0  0
  1 29  1  0  0  0  0
  2 26  2  0  0  0  0
  3 29  2  0  0  0  0
  4  5  1  0  0  0  0
  4  6  1  0  0  0  0
  4  9  1  0  0  0  0
  4 17  1  0  0  0  0
  5  7  1  0  0  0  0
  5  8  1  0  0  0  0
  5 18  1  0  0  0  0
  6 10  1  0  0  0  0
  6 15  1  0  0  0  0
  6 34  1  0  0  0  0
  7 11  2  0  0  0  0
  7 16  1  0  0  0  0
  8 10  1  0  0  0  0
  8 35  1  0  0  0  0
  8 36  1  0  0  0  0
  9 13  1  0  0  0  0
  9 37  1  0  0  0  0
  9 38  1  0  0  0  0
 10 39  1  0  0  0  0
 10 40  1  0  0  0  0
 11 12  1  0  0  0  0
 11 13  1  0  0  0  0
 12 14  1  0  0  0  0
 12 20  1  0  0  0  0
 12 22  1  0  0  0  0
 13 41  1  0  0  0  0
 13 42  1  0  0  0  0
 14 19  1  0  0  0  0
 14 21  1  0  0  0  0
 14 43  1  0  0  0  0
 15 23  1  0  0  0  0
 15 25  1  0  0  0  0
 15 44  1  0  0  0  0
 16 19  1  0  0  0  0
 16 45  1  0  0  0  0
 16 46  1  0  0  0  0
 17 47  1  0  0  0  0
 17 48  1  0  0  0  0
 17 49  1  0  0  0  0
 18 50  1  0  0  0  0
 18 51  1  0  0  0  0
 18 52  1  0  0  0  0
 19 53  1  0  0  0  0
 20 24  1  0  0  0  0
 20 54  1  0  0  0  0
 20 55  1  0  0  0  0
 21 26  1  0  0  0  0
 21 56  1  0  0  0  0
 21 57  1  0  0  0  0
 22 58  1  0  0  0  0
 22 59  1  0  0  0  0
 22 60  1  0  0  0  0
 23 27  1  0  0  0  0
 23 61  1  0  0  0  0
 23 62  1  0  0  0  0
 24 26  1  0  0  0  0
 24 63  1  0  0  0  0
 24 64  1  0  0  0  0
 25 65  1  0  0  0  0
 25 66  1  0  0  0  0
 25 67  1  0  0  0  0
 27 28  1  0  0  0  0
 27 68  1  0  0  0  0
 27 69  1  0  0  0  0
 28 30  1  0  0  0  0
 28 70  1  0  0  0  0
 28 71  1  0  0  0  0
 29 31  1  0  0  0  0
 30 32  1  0  0  0  0
 30 33  1  0  0  0  0
 30 72  1  0  0  0  0
 31 73  1  0  0  0  0
 31 74  1  0  0  0  0
 31 75  1  0  0  0  0
 32 76  1  0  0  0  0
 32 77  1  0  0  0  0
 32 78  1  0  0  0  0
 33 79  1  0  0  0  0
 33 80  1  0  0  0  0
 33 81  1  0  0  0  0
M  END
> <PUBCHEM_COMPOUND_CID>
22213298

> <PUBCHEM_CONFORMER_RMSD>
1

> <PUBCHEM_CONFORMER_DIVERSEORDER>
1
10
6
7
8
9
11
3
4
2
5

> <PUBCHEM_MMFF94_PARTIAL_CHARGES>
15
1 -0.43
11 -0.28
12 0.14
13 0.14
16 0.14
19 0.28
2 -0.57
21 0.06
24 0.06
26 0.45
29 0.66
3 -0.57
31 0.06
5 0.14
7 -0.28

> <PUBCHEM_EFFECTIVE_ROTOR_COUNT>
9

> <PUBCHEM_PHARMACOPHORE_FEATURES>
9
1 2 acceptor
1 25 hydrophobe
1 3 acceptor
3 30 32 33 hydrophobe
5 15 23 27 28 30 hydrophobe
5 4 5 6 8 10 rings
6 12 14 20 21 24 26 rings
6 4 5 7 9 11 13 rings
6 7 11 12 14 16 19 rings

> <PUBCHEM_HEAVY_ATOM_COUNT>
33

> <PUBCHEM_ATOM_DEF_STEREO_COUNT>
7

> <PUBCHEM_ATOM_UDEF_STEREO_COUNT>
0

> <PUBCHEM_BOND_DEF_STEREO_COUNT>
0

> <PUBCHEM_BOND_UDEF_STEREO_COUNT>
0

> <PUBCHEM_ISOTOPIC_ATOM_COUNT>
0

> <PUBCHEM_COMPONENT_COUNT>
1

> <PUBCHEM_CACTVS_TAUTO_COUNT>
3

> <PUBCHEM_CONFORMER_ID>
0152F2B200000001

> <PUBCHEM_MMFF94_ENERGY>
102.0731

> <PUBCHEM_FEATURE_SELFOVERLAP>
45.767

> <PUBCHEM_SHAPE_FINGERPRINT>
10006869 2 18201999945251942813
10050765 1 18267302212784118359
10165383 225 18261397797637581548
10411042 1 18122906422533124350
11456790 92 18336821992398184874
12166972 35 18059852831982299378
12236239 1 17704065205307532646
12403259 415 18040986337082417228
12522641 24 18411418405792124729
13533116 47 18411698798795824684
13811026 1 18187366563005104545
14114211 68 18263657315312636956
14118638 360 7853577932732767527
14170010 4 18040719173712021157
14347424 109 18410572877593311953
14400156 413 18409719682552185981
15131766 46 17985257732158495225
15419008 91 17749093510228877557
15475509 35 16733530633945195786
1577012 14 18202280347356423493
15840311 113 18335422387627655141
15927050 60 18052818337388235190
16120349 18 18412822483079544437
19315958 150 18335423512587514769
21033648 29 17749953383174645355
21130935 74 18408606989948729795
21133410 127 17823971432743541924
21150785 3 12252192861837158655
21267235 1 18335704896968842854
21521721 280 18410575107050512755
21781055 127 16414936174529457123
21792934 111 18336259077227000841
22311459 1 18338233760828410294
22956985 138 14058935566618128921
23559900 14 18040435503553477894
24771293 8 18043244841783481445
249057 25 17632304449655342673
3178227 256 18411133602516836122
335352 9 18408042897111813311
3411729 13 18263639723162969936
350125 39 18408603673911515678
397830 11 18114752658869905355
4073 2 18188212130165013515
4093350 32 18412262848213336195
45266715 3 11815902258004559348
4625314 4 18412823565580290063
5104073 3 18262233429804054299
57527293 21 17242159366089451440
9962374 69 18411127035232324166

> <PUBCHEM_SHAPE_MULTIPOLES>
661.52
22.42
3.56
1.2
57.71
2.99
0.02
2.68
-4.31
-8.99
-0.55
-0.06
0.09
1.03

> <PUBCHEM_SHAPE_SELFOVERLAP>
1377.585

> <PUBCHEM_SHAPE_VOLUME>
376

> <PUBCHEM_COORDINATE_TYPE>
2
5
10

$$$$
