Indigo
  -OEChem-01222105503D

 30 33  0     0  0  0  0  0  0999 V2000
    1.1510    2.4046   -0.0059 O   0  0  0  0  0  0  0  0  0  0  0  0
   -1.3041   -2.3824   -0.0263 O   0  0  0  0  0  0  0  0  0  0  0  0
    1.5153   -1.0909    0.0019 N   0  0  0  0  0  0  0  0  0  0  0  0
   -1.4326    1.0911   -0.0108 N   0  0  0  0  0  0  0  0  0  0  0  0
    0.7330    0.0327   -0.0012 C   0  0  0  0  0  0  0  0  0  0  0  0
    2.9068    0.6528    0.0007 C   0  0  0  0  0  0  0  0  0  0  0  0
    2.8470   -0.7424    0.0032 C   0  0  0  0  0  0  0  0  0  0  0  0
   -0.7186   -0.0040   -0.0044 C   0  0  0  0  0  0  0  0  0  0  0  0
    1.5655    1.1282   -0.0019 C   0  0  0  0  0  0  0  0  0  0  0  0
   -2.9742   -0.6709    0.0043 C   0  0  0  0  0  0  0  0  0  0  0  0
   -1.6327   -1.2238   -0.0035 C   0  0  0  0  0  0  0  0  0  0  0  0
   -2.7879    0.7071   -0.0034 C   0  0  0  0  0  0  0  0  0  0  0  0
    4.1697    1.2776    0.0013 C   0  0  0  0  0  0  0  0  0  0  0  0
    3.9918   -1.5473    0.0061 C   0  0  0  0  0  0  0  0  0  0  0  0
   -4.2106   -1.2799    0.0117 C   0  0  0  0  0  0  0  0  0  0  0  0
   -3.8902    1.5434   -0.0019 C   0  0  0  0  0  0  0  0  0  0  0  0
    5.3234    0.4851    0.0040 C   0  0  0  0  0  0  0  0  0  0  0  0
    5.2335   -0.9053    0.0066 C   0  0  0  0  0  0  0  0  0  0  0  0
   -5.3220   -0.4376    0.0132 C   0  0  0  0  0  0  0  0  0  0  0  0
   -5.1642    0.9617    0.0063 C   0  0  0  0  0  0  0  0  0  0  0  0
    1.1699   -2.0409    0.0029 H   0  0  0  0  0  0  0  0  0  0  0  0
    4.2571    2.3603   -0.0005 H   0  0  0  0  0  0  0  0  0  0  0  0
    3.9228   -2.6299    0.0080 H   0  0  0  0  0  0  0  0  0  0  0  0
   -4.3216   -2.3573    0.0160 H   0  0  0  0  0  0  0  0  0  0  0  0
   -3.7784    2.6224   -0.0072 H   0  0  0  0  0  0  0  0  0  0  0  0
    6.3001    0.9615    0.0044 H   0  0  0  0  0  0  0  0  0  0  0  0
    6.1425   -1.5014    0.0088 H   0  0  0  0  0  0  0  0  0  0  0  0
   -6.3220   -0.8631    0.0191 H   0  0  0  0  0  0  0  0  0  0  0  0
   -6.0451    1.5985    0.0074 H   0  0  0  0  0  0  0  0  0  0  0  0
    1.9142    3.0082   -0.0061 H   0  0  0  0  0  0  0  0  0  0  0  0
  1  9  1  0  0  0  0
  1 30  1  0  0  0  0
  2 11  2  0  0  0  0
  3  5  1  0  0  0  0
  3  7  1  0  0  0  0
  3 21  1  0  0  0  0
  4  8  2  0  0  0  0
  4 12  1  0  0  0  0
  5  8  1  0  0  0  0
  5  9  2  0  0  0  0
  6  7  1  0  0  0  0
  6  9  1  0  0  0  0
  6 13  2  0  0  0  0
  7 14  2  0  0  0  0
  8 11  1  0  0  0  0
 10 11  1  0  0  0  0
 10 12  1  0  0  0  0
 10 15  2  0  0  0  0
 12 16  2  0  0  0  0
 13 17  1  0  0  0  0
 13 22  1  0  0  0  0
 14 18  1  0  0  0  0
 14 23  1  0  0  0  0
 15 19  1  0  0  0  0
 15 24  1  0  0  0  0
 16 20  1  0  0  0  0
 16 25  1  0  0  0  0
 17 18  2  0  0  0  0
 17 26  1  0  0  0  0
 18 27  1  0  0  0  0
 19 20  2  0  0  0  0
 19 28  1  0  0  0  0
 20 29  1  0  0  0  0
M  END
> <PUBCHEM_COMPOUND_CID>
10215

> <PUBCHEM_CONFORMER_RMSD>
0.6

> <PUBCHEM_CONFORMER_DIVERSEORDER>
1
3
4
2

> <PUBCHEM_MMFF94_PARTIAL_CHARGES>
29
1 -0.51
10 0.09
11 0.48
12 0.18
13 -0.15
14 -0.15
15 -0.15
16 -0.15
17 -0.15
18 -0.15
19 -0.15
2 -0.57
20 -0.15
21 0.27
22 0.15
23 0.15
24 0.15
25 0.15
26 0.15
27 0.15
28 0.15
29 0.15
3 0.03
30 0.45
4 -0.63
5 -0.24
7 -0.15
8 0.53
9 0.06

> <PUBCHEM_EFFECTIVE_ROTOR_COUNT>
1

> <PUBCHEM_PHARMACOPHORE_FEATURES>
9
1 1 donor
1 2 acceptor
1 3 cation
1 3 donor
1 4 acceptor
5 3 5 6 7 9 rings
5 4 8 10 11 12 rings
6 10 12 15 16 19 20 rings
6 6 7 13 14 17 18 rings

> <PUBCHEM_HEAVY_ATOM_COUNT>
20

> <PUBCHEM_ATOM_DEF_STEREO_COUNT>
0

> <PUBCHEM_ATOM_UDEF_STEREO_COUNT>
0

> <PUBCHEM_BOND_DEF_STEREO_COUNT>
0

> <PUBCHEM_BOND_UDEF_STEREO_COUNT>
0

> <PUBCHEM_ISOTOPIC_ATOM_COUNT>
0

> <PUBCHEM_COMPONENT_COUNT>
1

> <PUBCHEM_CACTVS_TAUTO_COUNT>
17

> <PUBCHEM_CONFORMER_ID>
000027E700000001

> <PUBCHEM_MMFF94_ENERGY>
51.8012

> <PUBCHEM_FEATURE_SELFOVERLAP>
45.861

> <PUBCHEM_SHAPE_FINGERPRINT>
11315181 36 17917715712347880512
11578080 2 16914522531172641154
12107183 9 17690280404522695664
12236239 1 18410293605391400976
12403259 415 18411128135192221313
13167823 11 18410571790428749442
13288520 33 18411983550795386111
13533116 47 17489308538726327862
13862211 1 18410851049202374342
14341114 176 18410017645395428009
15042514 8 18265337399176200571
15099037 51 18410573976804317639
15196674 1 18410573985151457635
15375358 24 18272654541077718910
15788980 27 18333171665249231168
17834072 33 18413388752293599324
17844677 252 18411144631739534137
1813 80 17022903445638362868
19141452 34 18412261761349330919
19489759 90 14692574303973878467
200 152 18060135444845651145
20645477 70 18341896247493638126
21033648 29 18187348931605964789
21065198 57 18338797926225057368
21267235 1 18410582781344953490
21279426 13 18266741272779699335
21421861 104 17823687574132606618
221490 88 18191593149151014226
23402539 116 18272364274466282349
23558518 356 17609496386544032994
23559900 14 18342733052724324248
239999 70 18272093773621954790
300161 21 18413101775738114984
3004659 81 18261676987512082262
335352 9 18410855434363639709
34797466 226 17274548727917533812
34934 24 18411695513414738594
350125 39 18410858759333471385
351380 180 18411980269535291447
3545911 37 18411420617800372236
4073 2 18041003985451345498
4214541 1 18410856551303231457
474 4 17314235638650175028
5104073 3 18410575093253020952
542803 24 18411136935115441460
6138700 20 18266462005833715350
69090 78 18411979174208172967
77779 3 18410012143299592192
9709674 26 18411706525320976239
9981440 41 17254276138245758792

> <PUBCHEM_SHAPE_MULTIPOLES>
389.89
12.3
1.91
0.6
0.35
0
0
0.09
-0.05
-0.05
0.01
0
0
0

> <PUBCHEM_SHAPE_SELFOVERLAP>
893.86

> <PUBCHEM_SHAPE_VOLUME>
202.9

> <PUBCHEM_COORDINATE_TYPE>
2
5
10

$$$$
