Isostrychnopentamine
  -OEChem-01222104383D

 84 91  0     1  0  0  0  0  0999 V2000
   -6.8917    0.8673   -0.8006 O   0  0  0  0  0  0  0  0  0  0  0  0
   -0.0514   -3.0092    1.5349 N   0  0  2  0  0  0  0  0  0  0  0  0
   -2.2650   -0.2339    0.3850 N   0  0  0  0  0  0  0  0  0  0  0  0
    3.5767    0.2059   -3.0672 N   0  0  1  0  0  0  0  0  0  0  0  0
    2.7783    1.1647    0.4458 N   0  0  0  0  0  0  0  0  0  0  0  0
   -5.1708    2.7660    0.6164 N   0  0  2  0  0  0  0  0  0  0  0  0
    2.1377   -1.7116   -0.0078 C   0  0  1  0  0  0  0  0  0  0  0  0
   -0.2231   -1.6488    0.9614 C   0  0  1  0  0  0  0  0  0  0  0  0
    0.6569   -1.4046   -0.2785 C   0  0  0  0  0  0  0  0  0  0  0  0
    2.2811   -3.1353    0.5706 C   0  0  2  0  0  0  0  0  0  0  0  0
    1.3600   -3.3146    1.7904 C   0  0  0  0  0  0  0  0  0  0  0  0
    2.9481   -1.5167   -1.2935 C   0  0  0  0  0  0  0  0  0  0  0  0
   -1.6666   -1.4370    0.6261 C   0  0  0  0  0  0  0  0  0  0  0  0
   -0.7337   -4.0634    0.7535 C   0  0  0  0  0  0  0  0  0  0  0  0
    2.8623   -0.0649   -1.7889 C   0  0  1  0  0  0  0  0  0  0  0  0
   -2.6124   -2.4304    0.4955 C   0  0  0  0  0  0  0  0  0  0  0  0
   -2.2675   -3.8587    0.7326 C   0  0  0  0  0  0  0  0  0  0  0  0
   -3.8431   -1.8083    0.1522 C   0  0  0  0  0  0  0  0  0  0  0  0
   -3.5971   -0.4317    0.0869 C   0  0  0  0  0  0  0  0  0  0  0  0
    3.3901    0.8649   -0.7379 C   0  0  0  0  0  0  0  0  0  0  0  0
    3.6976   -3.4421    0.9609 C   0  0  0  0  0  0  0  0  0  0  0  0
    4.5813    1.5545   -0.8003 C   0  0  0  0  0  0  0  0  0  0  0  0
   -4.5950    0.4970   -0.2305 C   0  0  0  0  0  0  0  0  0  0  0  0
    5.0448    0.2918   -2.9115 C   0  0  0  0  0  0  0  0  0  0  0  0
   -4.3162    1.9837   -0.2992 C   0  0  1  0  0  0  0  0  0  0  0  0
    5.4634    1.4654   -1.9951 C   0  0  0  0  0  0  0  0  0  0  0  0
   -4.5928    2.5761   -1.6935 C   0  0  0  0  0  0  0  0  0  0  0  0
   -5.1470   -2.2763   -0.1067 C   0  0  0  0  0  0  0  0  0  0  0  0
    4.7087    2.3017    0.4019 C   0  0  0  0  0  0  0  0  0  0  0  0
    3.2110   -0.7126   -4.1404 C   0  0  0  0  0  0  0  0  0  0  0  0
   -5.5578    3.7285   -1.4520 C   0  0  0  0  0  0  0  0  0  0  0  0
   -5.8789    0.0075   -0.4861 C   0  0  0  0  0  0  0  0  0  0  0  0
    3.5662    2.0379    1.1663 C   0  0  0  0  0  0  0  0  0  0  0  0
   -5.3324    4.0847    0.0037 C   0  0  0  0  0  0  0  0  0  0  0  0
    4.4231   -4.4311    0.4282 C   0  0  0  0  0  0  0  0  0  0  0  0
   -6.1530   -1.3570   -0.4252 C   0  0  0  0  0  0  0  0  0  0  0  0
   -4.6354    2.8518    1.9691 C   0  0  0  0  0  0  0  0  0  0  0  0
    5.6797    3.1834    0.9177 C   0  0  0  0  0  0  0  0  0  0  0  0
    3.3532    2.6119    2.4248 C   0  0  0  0  0  0  0  0  0  0  0  0
    5.4780    3.7633    2.1752 C   0  0  0  0  0  0  0  0  0  0  0  0
    4.3323    3.4801    2.9157 C   0  0  0  0  0  0  0  0  0  0  0  0
    2.5052   -1.0747    0.7959 H   0  0  0  0  0  0  0  0  0  0  0  0
    0.0543   -0.9237    1.7388 H   0  0  0  0  0  0  0  0  0  0  0  0
    0.5089   -0.3617   -0.5735 H   0  0  0  0  0  0  0  0  0  0  0  0
    0.3025   -2.0104   -1.1238 H   0  0  0  0  0  0  0  0  0  0  0  0
    1.9672   -3.8505   -0.2027 H   0  0  0  0  0  0  0  0  0  0  0  0
    1.7007   -2.6617    2.6064 H   0  0  0  0  0  0  0  0  0  0  0  0
    1.4506   -4.3344    2.1876 H   0  0  0  0  0  0  0  0  0  0  0  0
    2.5696   -2.2103   -2.0536 H   0  0  0  0  0  0  0  0  0  0  0  0
    3.9966   -1.7840   -1.1178 H   0  0  0  0  0  0  0  0  0  0  0  0
   -0.5369   -5.0487    1.1936 H   0  0  0  0  0  0  0  0  0  0  0  0
   -0.3577   -4.0951   -0.2765 H   0  0  0  0  0  0  0  0  0  0  0  0
    1.8233    0.2108   -1.9942 H   0  0  0  0  0  0  0  0  0  0  0  0
   -2.6884   -4.1651    1.6983 H   0  0  0  0  0  0  0  0  0  0  0  0
   -2.7114   -4.4954   -0.0406 H   0  0  0  0  0  0  0  0  0  0  0  0
   -1.7969    0.6612    0.4134 H   0  0  0  0  0  0  0  0  0  0  0  0
    4.1580   -2.8171    1.7225 H   0  0  0  0  0  0  0  0  0  0  0  0
    5.4445   -0.6500   -2.5143 H   0  0  0  0  0  0  0  0  0  0  0  0
    5.5210    0.4490   -3.8875 H   0  0  0  0  0  0  0  0  0  0  0  0
   -3.2606    2.1840   -0.0756 H   0  0  0  0  0  0  0  0  0  0  0  0
    5.3895    2.4063   -2.5546 H   0  0  0  0  0  0  0  0  0  0  0  0
    6.5090    1.3396   -1.6932 H   0  0  0  0  0  0  0  0  0  0  0  0
    1.8602    0.8624    0.7386 H   0  0  0  0  0  0  0  0  0  0  0  0
   -4.9947    1.8708   -2.4281 H   0  0  0  0  0  0  0  0  0  0  0  0
   -3.6573    2.9725   -2.1087 H   0  0  0  0  0  0  0  0  0  0  0  0
   -5.3759   -3.3373   -0.0630 H   0  0  0  0  0  0  0  0  0  0  0  0
    3.6177   -1.7187   -3.9927 H   0  0  0  0  0  0  0  0  0  0  0  0
    3.5870   -0.3390   -5.0995 H   0  0  0  0  0  0  0  0  0  0  0  0
    2.1223   -0.7839   -4.2402 H   0  0  0  0  0  0  0  0  0  0  0  0
   -5.3564    4.5733   -2.1181 H   0  0  0  0  0  0  0  0  0  0  0  0
   -6.5927    3.4121   -1.6242 H   0  0  0  0  0  0  0  0  0  0  0  0
   -4.4286    4.6982    0.1090 H   0  0  0  0  0  0  0  0  0  0  0  0
   -6.1836    4.6311    0.4211 H   0  0  0  0  0  0  0  0  0  0  0  0
    5.4439   -4.5996    0.7534 H   0  0  0  0  0  0  0  0  0  0  0  0
    4.0181   -5.0851   -0.3360 H   0  0  0  0  0  0  0  0  0  0  0  0
   -7.1580   -1.7207   -0.6258 H   0  0  0  0  0  0  0  0  0  0  0  0
   -3.6470    3.3243    1.9969 H   0  0  0  0  0  0  0  0  0  0  0  0
   -4.5527    1.8560    2.4174 H   0  0  0  0  0  0  0  0  0  0  0  0
   -5.3101    3.4313    2.6088 H   0  0  0  0  0  0  0  0  0  0  0  0
    6.5779    3.4142    0.3519 H   0  0  0  0  0  0  0  0  0  0  0  0
    2.4606    2.3942    3.0018 H   0  0  0  0  0  0  0  0  0  0  0  0
   -6.7649    1.6892   -0.3002 H   0  0  0  0  0  0  0  0  0  0  0  0
    6.2248    4.4428    2.5775 H   0  0  0  0  0  0  0  0  0  0  0  0
    4.1959    3.9420    3.8902 H   0  0  0  0  0  0  0  0  0  0  0  0
  1 32  1  0  0  0  0
  1 82  1  0  0  0  0
  2  8  1  0  0  0  0
  2 11  1  0  0  0  0
  2 14  1  0  0  0  0
  3 13  1  0  0  0  0
  3 19  1  0  0  0  0
  3 56  1  0  0  0  0
  4 15  1  0  0  0  0
  4 24  1  0  0  0  0
  4 30  1  0  0  0  0
  5 20  1  0  0  0  0
  5 33  1  0  0  0  0
  5 63  1  0  0  0  0
  6 25  1  0  0  0  0
  6 34  1  0  0  0  0
  6 37  1  0  0  0  0
  7  9  1  0  0  0  0
  7 10  1  0  0  0  0
  7 12  1  0  0  0  0
  7 42  1  0  0  0  0
  8  9  1  0  0  0  0
  8 13  1  0  0  0  0
  8 43  1  0  0  0  0
  9 44  1  0  0  0  0
  9 45  1  0  0  0  0
 10 11  1  0  0  0  0
 10 21  1  0  0  0  0
 10 46  1  0  0  0  0
 11 47  1  0  0  0  0
 11 48  1  0  0  0  0
 12 15  1  0  0  0  0
 12 49  1  0  0  0  0
 12 50  1  0  0  0  0
 13 16  2  0  0  0  0
 14 17  1  0  0  0  0
 14 51  1  0  0  0  0
 14 52  1  0  0  0  0
 15 20  1  0  0  0  0
 15 53  1  0  0  0  0
 16 17  1  0  0  0  0
 16 18  1  0  0  0  0
 17 54  1  0  0  0  0
 17 55  1  0  0  0  0
 18 19  2  0  0  0  0
 18 28  1  0  0  0  0
 19 23  1  0  0  0  0
 20 22  2  0  0  0  0
 21 35  2  0  0  0  0
 21 57  1  0  0  0  0
 22 26  1  0  0  0  0
 22 29  1  0  0  0  0
 23 25  1  0  0  0  0
 23 32  2  0  0  0  0
 24 26  1  0  0  0  0
 24 58  1  0  0  0  0
 24 59  1  0  0  0  0
 25 27  1  0  0  0  0
 25 60  1  0  0  0  0
 26 61  1  0  0  0  0
 26 62  1  0  0  0  0
 27 31  1  0  0  0  0
 27 64  1  0  0  0  0
 27 65  1  0  0  0  0
 28 36  2  0  0  0  0
 28 66  1  0  0  0  0
 29 33  1  0  0  0  0
 29 38  2  0  0  0  0
 30 67  1  0  0  0  0
 30 68  1  0  0  0  0
 30 69  1  0  0  0  0
 31 34  1  0  0  0  0
 31 70  1  0  0  0  0
 31 71  1  0  0  0  0
 32 36  1  0  0  0  0
 33 39  2  0  0  0  0
 34 72  1  0  0  0  0
 34 73  1  0  0  0  0
 35 74  1  0  0  0  0
 35 75  1  0  0  0  0
 36 76  1  0  0  0  0
 37 77  1  0  0  0  0
 37 78  1  0  0  0  0
 37 79  1  0  0  0  0
 38 40  1  0  0  0  0
 38 80  1  0  0  0  0
 39 41  1  0  0  0  0
 39 81  1  0  0  0  0
 40 41  2  0  0  0  0
 40 83  1  0  0  0  0
 41 84  1  0  0  0  0
M  END
> <PUBCHEM_COMPOUND_CID>
168915

> <PUBCHEM_CONFORMER_RMSD>
1

> <PUBCHEM_CONFORMER_DIVERSEORDER>
4
1
6
10
5
7
2
3
11
8
9

> <PUBCHEM_MMFF94_PARTIAL_CHARGES>
46
1 -0.53
10 0.14
11 0.27
13 -0.33
14 0.27
15 0.45
16 -0.18
17 0.18
19 -0.15
2 -0.81
20 -0.33
21 -0.29
22 -0.18
23 -0.14
24 0.27
25 0.41
26 0.18
28 -0.15
3 0.03
30 0.27
32 0.08
33 -0.15
34 0.27
35 -0.3
36 -0.15
37 0.27
38 -0.15
39 -0.15
4 -0.81
40 -0.15
41 -0.15
5 0.03
56 0.27
57 0.15
6 -0.81
63 0.27
66 0.15
74 0.15
75 0.15
76 0.15
8 0.45
80 0.15
81 0.15
82 0.45
83 0.15
84 0.15

> <PUBCHEM_EFFECTIVE_ROTOR_COUNT>
7

> <PUBCHEM_PHARMACOPHORE_FEATURES>
17
1 1 donor
1 2 cation
1 3 cation
1 3 donor
1 35 hydrophobe
1 4 cation
1 5 cation
1 5 donor
1 6 cation
5 3 13 16 18 19 rings
5 5 20 22 29 33 rings
5 6 25 27 31 34 rings
6 18 19 23 28 32 36 rings
6 2 7 8 9 10 11 rings
6 2 8 13 14 16 17 rings
6 29 33 38 39 40 41 rings
6 4 15 20 22 24 26 rings

> <PUBCHEM_HEAVY_ATOM_COUNT>
41

> <PUBCHEM_ATOM_DEF_STEREO_COUNT>
4

> <PUBCHEM_ATOM_UDEF_STEREO_COUNT>
1

> <PUBCHEM_BOND_DEF_STEREO_COUNT>
0

> <PUBCHEM_BOND_UDEF_STEREO_COUNT>
0

> <PUBCHEM_ISOTOPIC_ATOM_COUNT>
0

> <PUBCHEM_COMPONENT_COUNT>
1

> <PUBCHEM_CACTVS_TAUTO_COUNT>
9

> <PUBCHEM_CONFORMER_ID>
000293D300000004

> <PUBCHEM_MMFF94_ENERGY>
99.994

> <PUBCHEM_FEATURE_SELFOVERLAP>
86.68

> <PUBCHEM_SHAPE_FINGERPRINT>
10439779 11 18261386797477087316
10556698 54 18343302544134723941
11059845 2 18189030119629039112
11115154 58 18052550880694544826
11331351 85 17617652160035870746
11479125 193 17130417107223346992
11828042 207 17689120471771299333
1200032 147 16372164098989426110
12422481 6 16951109691040618228
12655364 74 17044851089452617748
13617811 41 18115587192637936991
13947947 63 18336529608262752292
14347329 18 18115040700498397756
14739800 52 18411128164824196794
16067690 210 17345205402271169969
16708801 149 18189895486029149373
16992828 155 16546347919039431528
19053607 189 18113616785369078093
19304671 126 17988925539950871889
21033648 29 17979637055082096352
21223535 225 17630912441838012560
21857420 4 17766562352927655038
21859007 373 18269273646391808186
21987440 362 18336252527701990162
22121540 332 18342736360340077772
2260408 40 11458692937890216790
376196 1 18412826880324858334
3918712 181 18188207714564476933
42767 28 18131359578805189145
44249763 50 17914890078764497558
4435113 14 18060149751061052429
508180 173 18119540838340228626
508706 21 18265341775061410405
513532 50 18342461465332106254
5223283 242 17055864467829554157
5252454 2 18261122820275989213
5951187 136 18058450893963138773
6058803 2 18189043202337727883
6086070 43 18201727193648507890
6371009 1 18115579504124627613
6677587 24 17346305025662612572
9849439 229 18334286548966165585
9961470 85 18265317439925041193

> <PUBCHEM_SHAPE_MULTIPOLES>
812.99
16.92
6.54
2.73
12.86
0.63
-1.92
-15.43
-2.88
-0.94
3.92
-5.26
-1.51
3.29

> <PUBCHEM_SHAPE_SELFOVERLAP>
1804.148

> <PUBCHEM_SHAPE_VOLUME>
432.2

> <PUBCHEM_COORDINATE_TYPE>
2
5
10

$$$$
