54703017
     RDKit          2D

 33 35  0  0  0  0  0  0  0  0999 V2000
    3.7690    0.5833    0.0000 O   0  0  0  0  0  0  0  0  0  0  0  0
    6.0291   -0.6767    0.0000 O   0  0  0  0  0  0  0  0  0  0  0  0
    2.5369   -1.9555    0.0000 O   0  0  0  0  0  0  0  0  0  0  0  0
    4.2690   -4.9555    0.0000 O   0  0  0  0  0  0  0  0  0  0  0  0
    3.7298    5.0465    0.0000 O   0  0  0  0  0  0  0  0  0  0  0  0
    2.5089   -0.6767    0.0000 O   0  0  0  0  0  0  0  0  0  0  0  0
    4.2690   -1.9555    0.0000 C   0  0  0  0  0  0  0  0  0  0  0  0
    4.2690   -0.9555    0.0000 C   0  0  0  0  0  0  0  0  0  0  0  0
    5.1350   -3.4555    0.0000 C   0  0  0  0  0  0  0  0  0  0  0  0
    5.1350   -2.4555    0.0000 C   0  0  0  0  0  0  0  0  0  0  0  0
    6.0010   -3.9555    0.0000 C   0  0  0  0  0  0  0  0  0  0  0  0
    5.0780   -0.3677    0.0000 C   0  0  0  0  0  0  0  0  0  0  0  0
    4.7690    0.5833    0.0000 C   0  0  0  0  0  0  0  0  0  0  0  0
    3.4030   -2.4555    0.0000 C   0  0  0  0  0  0  0  0  0  0  0  0
    4.2690   -3.9555    0.0000 C   0  0  0  0  0  0  0  0  0  0  0  0
    5.1311    4.0285    0.0000 C   0  0  0  0  0  0  0  0  0  0  0  0
    4.9500    2.3059    0.0000 C   0  0  0  0  0  0  0  0  0  0  0  0
    3.4030   -3.4555    0.0000 C   0  0  0  0  0  0  0  0  0  0  0  0
    5.3568    1.3924    0.0000 C   0  0  0  0  0  0  0  0  0  0  0  0
    3.4600   -0.3677    0.0000 C   0  0  0  0  0  0  0  0  0  0  0  0
    5.7189    4.8375    0.0000 C   0  0  0  0  0  0  0  0  0  0  0  0
    5.5378    3.1149    0.0000 C   0  0  0  0  0  0  0  0  0  0  0  0
    6.0010   -4.9555    0.0000 C   0  0  0  0  0  0  0  0  0  0  0  0
    4.1366    4.1330    0.0000 C   0  0  0  0  0  0  0  0  0  0  0  0
    3.9555    2.4104    0.0000 C   0  0  0  0  0  0  0  0  0  0  0  0
    3.5488    3.3240    0.0000 C   0  0  0  0  0  0  0  0  0  0  0  0
    6.7134    4.7330    0.0000 C   0  0  0  0  0  0  0  0  0  0  0  0
    6.8671   -5.4555    0.0000 C   0  0  0  0  0  0  0  0  0  0  0  0
    7.3012    5.5420    0.0000 C   0  0  0  0  0  0  0  0  0  0  0  0
    6.8671   -6.4555    0.0000 C   0  0  0  0  0  0  0  0  0  0  0  0
    7.7331   -4.9555    0.0000 C   0  0  0  0  0  0  0  0  0  0  0  0
    8.2957    5.4374    0.0000 C   0  0  0  0  0  0  0  0  0  0  0  0
    6.8944    6.4555    0.0000 C   0  0  0  0  0  0  0  0  0  0  0  0
  1 13  1  0
  1 20  1  0
  2 12  1  0
  3 14  1  0
  4 15  1  0
  5 24  1  0
  6 20  2  0
  7  8  1  0
  7 10  1  0
  7 14  2  0
  8 12  2  0
  8 20  1  0
  9 10  2  0
  9 11  1  0
  9 15  1  0
 11 23  1  0
 12 13  1  0
 13 19  2  0
 14 18  1  0
 15 18  2  0
 16 21  1  0
 16 22  2  0
 16 24  1  0
 17 19  1  0
 17 22  1  0
 17 25  2  0
 21 27  1  0
 23 28  2  0
 24 26  2  0
 25 26  1  0
 27 29  2  0
 28 30  1  0
 28 31  1  0
 29 32  1  0
 29 33  1  0
M  END
>  <PUBCHEM_COMPOUND_CID>  (1) 
54703017

>  <PUBCHEM_COMPOUND_CANONICALIZED>  (1) 
1

>  <PUBCHEM_CACTVS_COMPLEXITY>  (1) 
843

>  <PUBCHEM_CACTVS_HBOND_ACCEPTOR>  (1) 
6

>  <PUBCHEM_CACTVS_HBOND_DONOR>  (1) 
4

>  <PUBCHEM_CACTVS_ROTATABLE_BOND>  (1) 
6

>  <PUBCHEM_CACTVS_SUBSKEYS>  (1) 
AAADceB4OAAAAAAAAAAAAAAAAAAAAQAAAAAwYAAAAAAAAAABQAAAGgAACAAADASAmAAyDoAABgCIAiDSCAACCAAgIAAIiAEGCMgJJzKCNRKCcAAlwBULuQfK6PSOIAACCAAIAABAAAQQABAAAAAAAAAAAA==

>  <PUBCHEM_IUPAC_OPENEYE_NAME>  (1) 
(5Z)-3-[2,4-dihydroxy-5-(3-methylbut-2-enyl)phenyl]-4-hydroxy-5-[[4-hydroxy-3-(3-methylbut-2-enyl)phenyl]methylene]furan-2-one

>  <PUBCHEM_IUPAC_CAS_NAME>  (1) 
(5Z)-3-[2,4-dihydroxy-5-(3-methylbut-2-enyl)phenyl]-4-hydroxy-5-[[4-hydroxy-3-(3-methylbut-2-enyl)phenyl]methylidene]-2-furanone

>  <PUBCHEM_IUPAC_NAME_MARKUP>  (1) 
(5<I>Z</I>)-3-[2,4-dihydroxy-5-(3-methylbut-2-enyl)phenyl]-4-hydroxy-5-[[4-hydroxy-3-(3-methylbut-2-enyl)phenyl]methylidene]furan-2-one

>  <PUBCHEM_IUPAC_NAME>  (1) 
(5Z)-3-[2,4-dihydroxy-5-(3-methylbut-2-enyl)phenyl]-4-hydroxy-5-[[4-hydroxy-3-(3-methylbut-2-enyl)phenyl]methylidene]furan-2-one

>  <PUBCHEM_IUPAC_SYSTEMATIC_NAME>  (1) 
(5Z)-3-[5-(3-methylbut-2-enyl)-2,4-bis(oxidanyl)phenyl]-5-[[3-(3-methylbut-2-enyl)-4-oxidanyl-phenyl]methylidene]-4-oxidanyl-furan-2-one

>  <PUBCHEM_IUPAC_TRADITIONAL_NAME>  (1) 
(5Z)-3-[2,4-dihydroxy-5-(3-methylbut-2-enyl)phenyl]-4-hydroxy-5-[4-hydroxy-3-(3-methylbut-2-enyl)benzylidene]furan-2-one

>  <PUBCHEM_IUPAC_INCHI>  (1) 
InChI=1S/C27H28O6/c1-15(2)5-8-18-11-17(7-10-21(18)28)12-24-26(31)25(27(32)33-24)20-13-19(9-6-16(3)4)22(29)14-23(20)30/h5-7,10-14,28-31H,8-9H2,1-4H3/b24-12-

>  <PUBCHEM_IUPAC_INCHIKEY>  (1) 
IAHWCROWFXOMDG-MSXFZWOLSA-N

>  <PUBCHEM_XLOGP3_AA>  (1) 
6.1

>  <PUBCHEM_EXACT_MASS>  (1) 
448.18858861

>  <PUBCHEM_MOLECULAR_FORMULA>  (1) 
C27H28O6

>  <PUBCHEM_MOLECULAR_WEIGHT>  (1) 
448.5

>  <PUBCHEM_OPENEYE_CAN_SMILES>  (1) 
CC(=CCC1=CC(=C(C=C1O)O)C2=C(C(=CC3=CC(=C(C=C3)O)CC=C(C)C)OC2=O)O)C

>  <PUBCHEM_OPENEYE_ISO_SMILES>  (1) 
CC(=CCC1=CC(=C(C=C1O)O)C2=C(/C(=C/C3=CC(=C(C=C3)O)CC=C(C)C)/OC2=O)O)C

>  <PUBCHEM_CACTVS_TPSA>  (1) 
107

>  <PUBCHEM_MONOISOTOPIC_WEIGHT>  (1) 
448.18858861

>  <PUBCHEM_TOTAL_CHARGE>  (1) 
0

>  <PUBCHEM_HEAVY_ATOM_COUNT>  (1) 
33

>  <PUBCHEM_ATOM_DEF_STEREO_COUNT>  (1) 
0

>  <PUBCHEM_ATOM_UDEF_STEREO_COUNT>  (1) 
0

>  <PUBCHEM_BOND_DEF_STEREO_COUNT>  (1) 
1

>  <PUBCHEM_BOND_UDEF_STEREO_COUNT>  (1) 
0

>  <PUBCHEM_ISOTOPIC_ATOM_COUNT>  (1) 
0

>  <PUBCHEM_COMPONENT_COUNT>  (1) 
1

>  <PUBCHEM_CACTVS_TAUTO_COUNT>  (1) 
-1

>  <PUBCHEM_COORDINATE_TYPE>  (1) 
1
5
255

>  <PUBCHEM_BONDANNOTATIONS>  (1) 
14  18  8
15  18  8
16  22  8
16  24  8
17  22  8
17  25  8
24  26  8
25  26  8
7  10  8
7  14  8
9  10  8
9  15  8

$$$$
