10621
     RDKit          2D

 43 47  0  0  1  0  0  0  0  0999 V2000
    6.8671   -1.8743    0.0000 O   0  0  0  0  0  0  0  0  0  0  0  0
    6.0010   -4.3743    0.0000 O   0  0  0  0  0  0  0  0  0  0  0  0
    4.2690   -4.3743    0.0000 O   0  0  0  0  0  0  0  0  0  0  0  0
    7.7331   -4.3743    0.0000 O   0  0  0  0  0  0  0  0  0  0  0  0
    7.7331   -0.3743    0.0000 O   0  0  0  0  0  0  0  0  0  0  0  0
    9.4651   -3.3743    0.0000 O   0  0  0  0  0  0  0  0  0  0  0  0
    9.4651   -1.3743    0.0000 O   0  0  0  0  0  0  0  0  0  0  0  0
    6.0010   -6.3743    0.0000 O   0  0  0  0  0  0  0  0  0  0  0  0
    4.2690   -7.3743    0.0000 O   0  0  0  0  0  0  0  0  0  0  0  0
    2.5369   -6.3743    0.0000 O   0  0  0  0  0  0  0  0  0  0  0  0
    5.9589    2.6777    0.0000 O   0  0  0  0  0  0  0  0  0  0  0  0
    4.1934   -0.3470    0.0000 O   0  0  0  0  0  0  0  0  0  0  0  0
    3.3550    1.1877    0.0000 O   0  0  0  0  0  0  0  0  0  0  0  0
    5.1102    7.1810    0.0000 O   0  0  0  0  0  0  0  0  0  0  0  0
    6.8384    6.1743    0.0000 O   0  0  0  0  0  0  0  0  0  0  0  0
    6.8671   -2.8743    0.0000 C   0  0  0  0  0  0  0  0  0  0  0  0
    7.7331   -3.3743    0.0000 C   0  0  0  0  0  0  0  0  0  0  0  0
    8.5991   -2.8743    0.0000 C   0  0  0  0  0  0  0  0  0  0  0  0
    8.5991   -1.8743    0.0000 C   0  0  0  0  0  0  0  0  0  0  0  0
    5.1350   -5.8743    0.0000 C   0  0  0  0  0  0  0  0  0  0  0  0
    5.1350   -4.8743    0.0000 C   0  0  0  0  0  0  0  0  0  0  0  0
    4.2690   -6.3743    0.0000 C   0  0  0  0  0  0  0  0  0  0  0  0
    3.4030   -5.8743    0.0000 C   0  0  0  0  0  0  0  0  0  0  0  0
    7.7331   -1.3743    0.0000 C   0  0  0  0  0  0  0  0  0  0  0  0
    6.0010   -3.3743    0.0000 C   0  0  0  0  0  0  0  0  0  0  0  0
    3.4030   -4.8743    0.0000 C   0  0  0  0  0  0  0  0  0  0  0  0
    2.5369   -4.3743    0.0000 C   0  0  0  0  0  0  0  0  0  0  0  0
    6.8671    0.1257    0.0000 C   0  0  0  0  0  0  0  0  0  0  0  0
    6.8630    1.1673    0.0000 C   0  0  0  0  0  0  0  0  0  0  0  0
    5.9550    1.6777    0.0000 C   0  0  0  0  0  0  0  0  0  0  0  0
    5.9630   -0.3916    0.0000 C   0  0  0  0  0  0  0  0  0  0  0  0
    5.0871    1.1810    0.0000 C   0  0  0  0  0  0  0  0  0  0  0  0
    5.0948    3.1810    0.0000 C   0  0  0  0  0  0  0  0  0  0  0  0
    4.2268    2.6843    0.0000 C   0  0  0  0  0  0  0  0  0  0  0  0
    5.0670    0.1396    0.0000 C   0  0  0  0  0  0  0  0  0  0  0  0
    4.2230    1.6844    0.0000 C   0  0  0  0  0  0  0  0  0  0  0  0
    5.0986    4.1810    0.0000 C   0  0  0  0  0  0  0  0  0  0  0  0
    5.9666    4.6776    0.0000 C   0  0  0  0  0  0  0  0  0  0  0  0
    4.2345    4.6843    0.0000 C   0  0  0  0  0  0  0  0  0  0  0  0
    5.9704    5.6776    0.0000 C   0  0  0  0  0  0  0  0  0  0  0  0
    4.2384    5.6843    0.0000 C   0  0  0  0  0  0  0  0  0  0  0  0
    5.1063    6.1810    0.0000 C   0  0  0  0  0  0  0  0  0  0  0  0
    4.2461    7.6843    0.0000 C   0  0  0  0  0  0  0  0  0  0  0  0
  1 16  1  0
  1 24  1  0
 21  2  1  1
  2 25  1  0
  3 21  1  0
  3 26  1  0
 17  4  1  6
 24  5  1  1
  5 28  1  0
 18  6  1  1
 19  7  1  6
 20  8  1  6
 22  9  1  6
 23 10  1  1
 11 30  1  0
 11 33  1  0
 12 35  1  0
 13 36  2  0
 14 42  1  0
 14 43  1  0
 15 40  1  0
 16 17  1  0
 16 25  1  1
 17 18  1  0
 18 19  1  0
 19 24  1  0
 20 21  1  0
 20 22  1  0
 22 23  1  0
 23 26  1  0
 26 27  1  6
 28 29  2  0
 28 31  1  0
 29 30  1  0
 30 32  2  0
 31 35  2  0
 32 35  1  0
 32 36  1  0
 33 34  1  0
 33 37  1  1
 34 36  1  0
 37 38  2  0
 37 39  1  0
 38 40  1  0
 39 41  2  0
 40 42  2  0
 41 42  1  0
M  END
>  <PUBCHEM_COMPOUND_CID>  (1) 
10621

>  <PUBCHEM_COMPOUND_CANONICALIZED>  (1) 
1

>  <PUBCHEM_CACTVS_COMPLEXITY>  (1) 
940

>  <PUBCHEM_CACTVS_HBOND_ACCEPTOR>  (1) 
15

>  <PUBCHEM_CACTVS_HBOND_DONOR>  (1) 
8

>  <PUBCHEM_CACTVS_ROTATABLE_BOND>  (1) 
7

>  <PUBCHEM_CACTVS_SUBSKEYS>  (1) 
AAADcfB4PAAAAAAAAAAAAAAAAAAAAAAAAAA0aJECAAAAAACRQAAAGgAACAAADBSwmAMyDoAABgCIAqBSAAACCAAkIAAIiAEGiMgdNzaGNRqieWOl4BUPuQfI7PzOIAABCAAIQABAAAIQABCAAAAAAAAAAA==

>  <PUBCHEM_IUPAC_OPENEYE_NAME>  (1) 
(2S)-5-hydroxy-2-(3-hydroxy-4-methoxy-phenyl)-7-[(2S,3R,4S,5S,6R)-3,4,5-trihydroxy-6-[[(2R,3R,4R,5R,6S)-3,4,5-trihydroxy-6-methyl-tetrahydropyran-2-yl]oxymethyl]tetrahydropyran-2-yl]oxy-chroman-4-one

>  <PUBCHEM_IUPAC_CAS_NAME>  (1) 
(2S)-5-hydroxy-2-(3-hydroxy-4-methoxyphenyl)-7-[[(2S,3R,4S,5S,6R)-3,4,5-trihydroxy-6-[[(2R,3R,4R,5R,6S)-3,4,5-trihydroxy-6-methyl-2-oxanyl]oxymethyl]-2-oxanyl]oxy]-3,4-dihydro-2H-1-benzopyran-4-one

>  <PUBCHEM_IUPAC_NAME_MARKUP>  (1) 
(2<I>S</I>)-5-hydroxy-2-(3-hydroxy-4-methoxyphenyl)-7-[(2<I>S</I>,3<I>R</I>,4<I>S</I>,5<I>S</I>,6<I>R</I>)-3,4,5-trihydroxy-6-[[(2<I>R</I>,3<I>R</I>,4<I>R</I>,5<I>R</I>,6<I>S</I>)-3,4,5-trihydroxy-6-methyloxan-2-yl]oxymethyl]oxan-2-yl]oxy-2,3-dihydrochromen-4-one

>  <PUBCHEM_IUPAC_NAME>  (1) 
(2S)-5-hydroxy-2-(3-hydroxy-4-methoxyphenyl)-7-[(2S,3R,4S,5S,6R)-3,4,5-trihydroxy-6-[[(2R,3R,4R,5R,6S)-3,4,5-trihydroxy-6-methyloxan-2-yl]oxymethyl]oxan-2-yl]oxy-2,3-dihydrochromen-4-one

>  <PUBCHEM_IUPAC_SYSTEMATIC_NAME>  (1) 
(2S)-2-(4-methoxy-3-oxidanyl-phenyl)-7-[(2S,3R,4S,5S,6R)-6-[[(2R,3R,4R,5R,6S)-6-methyl-3,4,5-tris(oxidanyl)oxan-2-yl]oxymethyl]-3,4,5-tris(oxidanyl)oxan-2-yl]oxy-5-oxidanyl-2,3-dihydrochromen-4-one

>  <PUBCHEM_IUPAC_TRADITIONAL_NAME>  (1) 
(2S)-5-hydroxy-2-(3-hydroxy-4-methoxy-phenyl)-7-[(2S,3R,4S,5S,6R)-3,4,5-trihydroxy-6-[[(2R,3R,4R,5R,6S)-3,4,5-trihydroxy-6-methyl-tetrahydropyran-2-yl]oxymethyl]tetrahydropyran-2-yl]oxy-chroman-4-one

>  <PUBCHEM_IUPAC_INCHI>  (1) 
InChI=1S/C28H34O15/c1-10-21(32)23(34)25(36)27(40-10)39-9-19-22(33)24(35)26(37)28(43-19)41-12-6-14(30)20-15(31)8-17(42-18(20)7-12)11-3-4-16(38-2)13(29)5-11/h3-7,10,17,19,21-30,32-37H,8-9H2,1-2H3/t10-,17-,19+,21-,22+,23+,24-,25+,26+,27+,28+/m0/s1

>  <PUBCHEM_IUPAC_INCHIKEY>  (1) 
QUQPHWDTPGMPEX-QJBIFVCTSA-N

>  <PUBCHEM_XLOGP3_AA>  (1) 
-1.1

>  <PUBCHEM_EXACT_MASS>  (1) 
610.18977037

>  <PUBCHEM_MOLECULAR_FORMULA>  (1) 
C28H34O15

>  <PUBCHEM_MOLECULAR_WEIGHT>  (1) 
610.6

>  <PUBCHEM_OPENEYE_CAN_SMILES>  (1) 
CC1C(C(C(C(O1)OCC2C(C(C(C(O2)OC3=CC(=C4C(=O)CC(OC4=C3)C5=CC(=C(C=C5)OC)O)O)O)O)O)O)O)O

>  <PUBCHEM_OPENEYE_ISO_SMILES>  (1) 
C[C@H]1[C@@H]([C@H]([C@H]([C@@H](O1)OC[C@@H]2[C@H]([C@@H]([C@H]([C@@H](O2)OC3=CC(=C4C(=O)C[C@H](OC4=C3)C5=CC(=C(C=C5)OC)O)O)O)O)O)O)O)O

>  <PUBCHEM_CACTVS_TPSA>  (1) 
234

>  <PUBCHEM_MONOISOTOPIC_WEIGHT>  (1) 
610.18977037

>  <PUBCHEM_TOTAL_CHARGE>  (1) 
0

>  <PUBCHEM_HEAVY_ATOM_COUNT>  (1) 
43

>  <PUBCHEM_ATOM_DEF_STEREO_COUNT>  (1) 
11

>  <PUBCHEM_ATOM_UDEF_STEREO_COUNT>  (1) 
0

>  <PUBCHEM_BOND_DEF_STEREO_COUNT>  (1) 
0

>  <PUBCHEM_BOND_UDEF_STEREO_COUNT>  (1) 
0

>  <PUBCHEM_ISOTOPIC_ATOM_COUNT>  (1) 
0

>  <PUBCHEM_COMPONENT_COUNT>  (1) 
1

>  <PUBCHEM_CACTVS_TAUTO_COUNT>  (1) 
-1

>  <PUBCHEM_COORDINATE_TYPE>  (1) 
1
5
255

>  <PUBCHEM_BONDANNOTATIONS>  (1) 
23  10  5
16  25  5
21  2  5
26  27  6
28  29  8
28  31  8
29  30  8
30  32  8
31  35  8
32  35  8
33  37  5
37  38  8
37  39  8
38  40  8
39  41  8
17  4  6
40  42  8
41  42  8
24  5  5
18  6  5
19  7  6
20  8  6
22  9  6

$$$$
