JBB25_0022
  -OEChem-04162408222D

 97101  0     1  0  0  0  0  0999 V2000
   10.3312   -2.7500    0.0000 O   0  0  0  0  0  0  0  0  0  0  0  0
   10.3312    0.2500    0.0000 O   0  0  0  0  0  0  0  0  0  0  0  0
   12.0632   -2.7500    0.0000 O   0  0  0  0  0  0  0  0  0  0  0  0
    8.5991    1.2500    0.0000 O   0  0  0  0  0  0  0  0  0  0  0  0
    8.5991   -1.7500    0.0000 O   0  0  0  0  0  0  0  0  0  0  0  0
    6.8195    1.3433    0.0000 O   0  0  0  0  0  0  0  0  0  0  0  0
   12.0632    0.2500    0.0000 O   0  0  0  0  0  0  0  0  0  0  0  0
   12.0632   -1.7500    0.0000 O   0  0  0  0  0  0  0  0  0  0  0  0
   10.3312   -4.7500    0.0000 O   0  0  0  0  0  0  0  0  0  0  0  0
   12.0632   -5.7500    0.0000 O   0  0  0  0  0  0  0  0  0  0  0  0
    6.8583    3.9306    0.0000 O   0  0  0  0  0  0  0  0  0  0  0  0
   13.7953   -4.7500    0.0000 O   0  0  0  0  0  0  0  0  0  0  0  0
    8.3717    3.4136    0.0000 O   0  0  0  0  0  0  0  0  0  0  0  0
    5.7844    4.4524    0.0000 O   0  0  0  0  0  0  0  0  0  0  0  0
    7.7331   -0.2500    0.0000 O   0  0  0  0  0  0  0  0  0  0  0  0
   14.6613    4.7500    0.0000 O   0  0  0  0  0  0  0  0  0  0  0  0
   12.9292    5.7500    0.0000 O   0  0  0  0  0  0  0  0  0  0  0  0
    2.5369   -1.2500    0.0000 O   0  0  0  0  0  0  0  0  0  0  0  0
    2.5369   -3.2500    0.0000 O   0  0  0  0  0  0  0  0  0  0  0  0
   10.3312   -1.7500    0.0000 C   0  0  1  0  0  0  0  0  0  0  0  0
    9.4651   -1.2500    0.0000 C   0  0  1  0  0  0  0  0  0  0  0  0
    9.4651   -0.2500    0.0000 C   0  0  1  0  0  0  0  0  0  0  0  0
   11.1972   -1.2500    0.0000 C   0  0  2  0  0  0  0  0  0  0  0  0
   11.1972   -0.2500    0.0000 C   0  0  1  0  0  0  0  0  0  0  0  0
   11.1972   -3.2500    0.0000 C   0  0  2  0  0  0  0  0  0  0  0  0
   11.1972   -4.2500    0.0000 C   0  0  1  0  0  0  0  0  0  0  0  0
    8.5991    0.2500    0.0000 C   0  0  0  0  0  0  0  0  0  0  0  0
   12.0632   -4.7500    0.0000 C   0  0  1  0  0  0  0  0  0  0  0  0
    6.6504    2.9524    0.0000 C   0  0  1  0  0  0  0  0  0  0  0  0
   12.9292   -4.2500    0.0000 C   0  0  2  0  0  0  0  0  0  0  0  0
    7.6286    2.7445    0.0000 C   0  0  2  0  0  0  0  0  0  0  0  0
    7.7331    1.7500    0.0000 C   0  0  2  0  0  0  0  0  0  0  0  0
   12.9292   -3.2500    0.0000 C   0  0  2  0  0  0  0  0  0  0  0  0
    6.1504    2.0864    0.0000 C   0  0  0  0  0  0  0  0  0  0  0  0
    5.7844    3.4524    0.0000 C   0  0  0  0  0  0  0  0  0  0  0  0
   13.7953   -2.7500    0.0000 C   0  0  0  0  0  0  0  0  0  0  0  0
   12.0632    1.2500    0.0000 C   0  0  0  0  0  0  0  0  0  0  0  0
    7.7331   -1.2500    0.0000 C   0  0  0  0  0  0  0  0  0  0  0  0
   12.9292    1.7500    0.0000 C   0  0  0  0  0  0  0  0  0  0  0  0
    6.8671   -1.7500    0.0000 C   0  0  0  0  0  0  0  0  0  0  0  0
   12.9292    2.7500    0.0000 C   0  0  0  0  0  0  0  0  0  0  0  0
    6.0010   -1.2500    0.0000 C   0  0  0  0  0  0  0  0  0  0  0  0
   13.7953    3.2500    0.0000 C   0  0  0  0  0  0  0  0  0  0  0  0
   12.0632    3.2500    0.0000 C   0  0  0  0  0  0  0  0  0  0  0  0
    5.1350   -1.7500    0.0000 C   0  0  0  0  0  0  0  0  0  0  0  0
   13.7953    4.2500    0.0000 C   0  0  0  0  0  0  0  0  0  0  0  0
   12.0632    4.2500    0.0000 C   0  0  0  0  0  0  0  0  0  0  0  0
   12.9292    4.7500    0.0000 C   0  0  0  0  0  0  0  0  0  0  0  0
    4.2690   -1.2500    0.0000 C   0  0  0  0  0  0  0  0  0  0  0  0
    5.1350   -2.7500    0.0000 C   0  0  0  0  0  0  0  0  0  0  0  0
    3.4030   -1.7500    0.0000 C   0  0  0  0  0  0  0  0  0  0  0  0
    4.2690   -3.2500    0.0000 C   0  0  0  0  0  0  0  0  0  0  0  0
    3.4030   -2.7500    0.0000 C   0  0  0  0  0  0  0  0  0  0  0  0
   10.8681   -2.0600    0.0000 H   0  0  0  0  0  0  0  0  0  0  0  0
    9.4651   -1.8700    0.0000 H   0  0  0  0  0  0  0  0  0  0  0  0
    9.4651    0.3700    0.0000 H   0  0  0  0  0  0  0  0  0  0  0  0
   11.1972   -1.8700    0.0000 H   0  0  0  0  0  0  0  0  0  0  0  0
   11.7341   -0.5600    0.0000 H   0  0  0  0  0  0  0  0  0  0  0  0
   11.1972   -2.6300    0.0000 H   0  0  0  0  0  0  0  0  0  0  0  0
   11.1972   -4.8700    0.0000 H   0  0  0  0  0  0  0  0  0  0  0  0
    7.9885    0.3577    0.0000 H   0  0  0  0  0  0  0  0  0  0  0  0
    8.3871   -0.3326    0.0000 H   0  0  0  0  0  0  0  0  0  0  0  0
   11.5263   -5.0600    0.0000 H   0  0  0  0  0  0  0  0  0  0  0  0
   12.9292   -4.8700    0.0000 H   0  0  0  0  0  0  0  0  0  0  0  0
    7.4681    3.3434    0.0000 H   0  0  0  0  0  0  0  0  0  0  0  0
    8.2531    2.0877    0.0000 H   0  0  0  0  0  0  0  0  0  0  0  0
   12.9292   -2.6300    0.0000 H   0  0  0  0  0  0  0  0  0  0  0  0
    5.6488    2.4508    0.0000 H   0  0  0  0  0  0  0  0  0  0  0  0
    5.7356    1.6257    0.0000 H   0  0  0  0  0  0  0  0  0  0  0  0
   12.6002   -1.4400    0.0000 H   0  0  0  0  0  0  0  0  0  0  0  0
    5.1738    3.5601    0.0000 H   0  0  0  0  0  0  0  0  0  0  0  0
    5.5723    2.8698    0.0000 H   0  0  0  0  0  0  0  0  0  0  0  0
   14.1053   -3.2869    0.0000 H   0  0  0  0  0  0  0  0  0  0  0  0
   14.3322   -2.4400    0.0000 H   0  0  0  0  0  0  0  0  0  0  0  0
   13.4853   -2.2131    0.0000 H   0  0  0  0  0  0  0  0  0  0  0  0
   10.3312   -5.3700    0.0000 H   0  0  0  0  0  0  0  0  0  0  0  0
   11.8512    1.8326    0.0000 H   0  0  0  0  0  0  0  0  0  0  0  0
   11.4526    1.1423    0.0000 H   0  0  0  0  0  0  0  0  0  0  0  0
   12.6002   -6.0600    0.0000 H   0  0  0  0  0  0  0  0  0  0  0  0
    7.4480    4.1222    0.0000 H   0  0  0  0  0  0  0  0  0  0  0  0
   14.3322   -4.4400    0.0000 H   0  0  0  0  0  0  0  0  0  0  0  0
    8.9614    3.2221    0.0000 H   0  0  0  0  0  0  0  0  0  0  0  0
   13.1413    1.1674    0.0000 H   0  0  0  0  0  0  0  0  0  0  0  0
   13.5398    1.8577    0.0000 H   0  0  0  0  0  0  0  0  0  0  0  0
    5.2474    4.7624    0.0000 H   0  0  0  0  0  0  0  0  0  0  0  0
    6.8671   -2.3700    0.0000 H   0  0  0  0  0  0  0  0  0  0  0  0
    6.0010   -0.6300    0.0000 H   0  0  0  0  0  0  0  0  0  0  0  0
   14.3322    2.9400    0.0000 H   0  0  0  0  0  0  0  0  0  0  0  0
   11.5263    2.9400    0.0000 H   0  0  0  0  0  0  0  0  0  0  0  0
   11.5263    4.5600    0.0000 H   0  0  0  0  0  0  0  0  0  0  0  0
    4.2690   -0.6300    0.0000 H   0  0  0  0  0  0  0  0  0  0  0  0
    5.6720   -3.0600    0.0000 H   0  0  0  0  0  0  0  0  0  0  0  0
   15.1982    4.4400    0.0000 H   0  0  0  0  0  0  0  0  0  0  0  0
    4.2690   -3.8700    0.0000 H   0  0  0  0  0  0  0  0  0  0  0  0
   12.3923    6.0600    0.0000 H   0  0  0  0  0  0  0  0  0  0  0  0
    2.0000   -1.5600    0.0000 H   0  0  0  0  0  0  0  0  0  0  0  0
    2.5369   -3.8700    0.0000 H   0  0  0  0  0  0  0  0  0  0  0  0
 20  1  1  1  0  0  0
 25  1  1  6  0  0  0
  2 22  1  0  0  0  0
  2 24  1  0  0  0  0
  3 25  1  0  0  0  0
  3 33  1  0  0  0  0
  4 27  1  0  0  0  0
 32  4  1  6  0  0  0
 21  5  1  6  0  0  0
  5 38  1  0  0  0  0
  6 32  1  0  0  0  0
  6 34  1  0  0  0  0
 24  7  1  1  0  0  0
  7 37  1  0  0  0  0
 23  8  1  6  0  0  0
  8 70  1  0  0  0  0
 26  9  1  1  0  0  0
  9 76  1  0  0  0  0
 28 10  1  1  0  0  0
 10 79  1  0  0  0  0
 29 11  1  1  0  0  0
 11 80  1  0  0  0  0
 30 12  1  6  0  0  0
 12 81  1  0  0  0  0
 31 13  1  1  0  0  0
 13 82  1  0  0  0  0
 14 35  1  0  0  0  0
 14 85  1  0  0  0  0
 15 38  2  0  0  0  0
 16 46  1  0  0  0  0
 16 93  1  0  0  0  0
 17 48  1  0  0  0  0
 17 95  1  0  0  0  0
 18 51  1  0  0  0  0
 18 96  1  0  0  0  0
 19 53  1  0  0  0  0
 19 97  1  0  0  0  0
 20 21  1  0  0  0  0
 20 23  1  0  0  0  0
 20 54  1  0  0  0  0
 21 22  1  0  0  0  0
 21 55  1  0  0  0  0
 22 27  1  1  0  0  0
 22 56  1  0  0  0  0
 23 24  1  0  0  0  0
 23 57  1  0  0  0  0
 24 58  1  0  0  0  0
 25 26  1  0  0  0  0
 25 59  1  0  0  0  0
 26 28  1  0  0  0  0
 26 60  1  0  0  0  0
 27 61  1  0  0  0  0
 27 62  1  0  0  0  0
 28 30  1  0  0  0  0
 28 63  1  0  0  0  0
 29 31  1  0  0  0  0
 29 34  1  0  0  0  0
 29 35  1  0  0  0  0
 30 33  1  0  0  0  0
 30 64  1  0  0  0  0
 31 32  1  0  0  0  0
 31 65  1  0  0  0  0
 32 66  1  0  0  0  0
 33 36  1  1  0  0  0
 33 67  1  0  0  0  0
 34 68  1  0  0  0  0
 34 69  1  0  0  0  0
 35 71  1  0  0  0  0
 35 72  1  0  0  0  0
 36 73  1  0  0  0  0
 36 74  1  0  0  0  0
 36 75  1  0  0  0  0
 37 39  1  0  0  0  0
 37 77  1  0  0  0  0
 37 78  1  0  0  0  0
 38 40  1  0  0  0  0
 39 41  1  0  0  0  0
 39 83  1  0  0  0  0
 39 84  1  0  0  0  0
 40 42  2  0  0  0  0
 40 86  1  0  0  0  0
 41 43  2  0  0  0  0
 41 44  1  0  0  0  0
 42 45  1  0  0  0  0
 42 87  1  0  0  0  0
 43 46  1  0  0  0  0
 43 88  1  0  0  0  0
 44 47  2  0  0  0  0
 44 89  1  0  0  0  0
 45 49  2  0  0  0  0
 45 50  1  0  0  0  0
 46 48  2  0  0  0  0
 47 48  1  0  0  0  0
 47 90  1  0  0  0  0
 49 51  1  0  0  0  0
 49 91  1  0  0  0  0
 50 52  2  0  0  0  0
 50 92  1  0  0  0  0
 51 53  2  0  0  0  0
 52 53  1  0  0  0  0
 52 94  1  0  0  0  0
M  END
> <PUBCHEM_COMPOUND_CID>
23928102

> <PUBCHEM_COMPOUND_CANONICALIZED>
1

> <PUBCHEM_CACTVS_COMPLEXITY>
1190

> <PUBCHEM_CACTVS_HBOND_ACCEPTOR>
19

> <PUBCHEM_CACTVS_HBOND_DONOR>
11

> <PUBCHEM_CACTVS_ROTATABLE_BOND>
14

> <PUBCHEM_CACTVS_SUBSKEYS>
AAADcfB8PgAAAAAAAAAAAAAAAAAAASAAAAA0aIEAAAAAAAABQAAAGgAACAAADFSwmAMyDoAABgCIAiDSCAACAAAgIAAIiAAGiMgZNiKCMRKicAElwBEPuYfA4LwOIAABAAAAQABAAAIAAACAAAAAAAAAAA==

> <PUBCHEM_IUPAC_OPENEYE_NAME>
[(2R,3R,4R,5R,6R)-2-[[(2R,3R,4R)-3,4-dihydroxy-4-(hydroxymethyl)tetrahydrofuran-2-yl]oxymethyl]-6-[2-(3,4-dihydroxyphenyl)ethoxy]-5-hydroxy-4-[(2S,3R,4R,5R,6S)-3,4,5-trihydroxy-6-methyl-tetrahydropyran-2-yl]oxy-tetrahydropyran-3-yl] (E)-3-(3,4-dihydroxyphenyl)prop-2-enoate

> <PUBCHEM_IUPAC_CAS_NAME>
(E)-3-(3,4-dihydroxyphenyl)-2-propenoic acid [(2R,3R,4R,5R,6R)-2-[[(2R,3R,4R)-3,4-dihydroxy-4-(hydroxymethyl)-2-oxolanyl]oxymethyl]-6-[2-(3,4-dihydroxyphenyl)ethoxy]-5-hydroxy-4-[[(2S,3R,4R,5R,6S)-3,4,5-trihydroxy-6-methyl-2-oxanyl]oxy]-3-oxanyl] ester

> <PUBCHEM_IUPAC_NAME_MARKUP>
[(2<I>R</I>,3<I>R</I>,4<I>R</I>,5<I>R</I>,6<I>R</I>)-2-[[(2<I>R</I>,3<I>R</I>,4<I>R</I>)-3,4-dihydroxy-4-(hydroxymethyl)oxolan-2-yl]oxymethyl]-6-[2-(3,4-dihydroxyphenyl)ethoxy]-5-hydroxy-4-[(2<I>S</I>,3<I>R</I>,4<I>R</I>,5<I>R</I>,6<I>S</I>)-3,4,5-trihydroxy-6-methyloxan-2-yl]oxyoxan-3-yl] (<I>E</I>)-3-(3,4-dihydroxyphenyl)prop-2-enoate

> <PUBCHEM_IUPAC_NAME>
[(2R,3R,4R,5R,6R)-2-[[(2R,3R,4R)-3,4-dihydroxy-4-(hydroxymethyl)oxolan-2-yl]oxymethyl]-6-[2-(3,4-dihydroxyphenyl)ethoxy]-5-hydroxy-4-[(2S,3R,4R,5R,6S)-3,4,5-trihydroxy-6-methyloxan-2-yl]oxyoxan-3-yl] (E)-3-(3,4-dihydroxyphenyl)prop-2-enoate

> <PUBCHEM_IUPAC_SYSTEMATIC_NAME>
[(2R,3R,4R,5R,6R)-6-[2-[3,4-bis(oxidanyl)phenyl]ethoxy]-2-[[(2R,3R,4R)-4-(hydroxymethyl)-3,4-bis(oxidanyl)oxolan-2-yl]oxymethyl]-4-[(2S,3R,4R,5R,6S)-6-methyl-3,4,5-tris(oxidanyl)oxan-2-yl]oxy-5-oxidanyl-oxan-3-yl] (E)-3-[3,4-bis(oxidanyl)phenyl]prop-2-enoate

> <PUBCHEM_IUPAC_TRADITIONAL_NAME>
(E)-3-(3,4-dihydroxyphenyl)acrylic acid [(2R,3R,4R,5R,6R)-2-[[(2R,3R,4R)-3,4-dihydroxy-4-methylol-tetrahydrofuran-2-yl]oxymethyl]-6-[2-(3,4-dihydroxyphenyl)ethoxy]-5-hydroxy-4-[(2S,3R,4R,5R,6S)-3,4,5-trihydroxy-6-methyl-tetrahydropyran-2-yl]oxy-tetrahydropyran-3-yl] ester

> <PUBCHEM_IUPAC_INCHI>
InChI=1S/C34H44O19/c1-15-24(41)25(42)26(43)32(50-15)53-29-27(44)31(47-9-8-17-3-6-19(37)21(39)11-17)51-22(12-48-33-30(45)34(46,13-35)14-49-33)28(29)52-23(40)7-4-16-2-5-18(36)20(38)10-16/h2-7,10-11,15,22,24-33,35-39,41-46H,8-9,12-14H2,1H3/b7-4+/t15-,22+,24-,25+,26+,27+,28+,29+,30-,31+,32-,33+,34+/m0/s1

> <PUBCHEM_IUPAC_INCHIKEY>
JMBINOWGIHWPJI-UNSOMVRXSA-N

> <PUBCHEM_XLOGP3_AA>
-1.7

> <PUBCHEM_EXACT_MASS>
756.24767917

> <PUBCHEM_MOLECULAR_FORMULA>
C34H44O19

> <PUBCHEM_MOLECULAR_WEIGHT>
756.7

> <PUBCHEM_OPENEYE_CAN_SMILES>
CC1C(C(C(C(O1)OC2C(C(OC(C2OC(=O)C=CC3=CC(=C(C=C3)O)O)COC4C(C(CO4)(CO)O)O)OCCC5=CC(=C(C=C5)O)O)O)O)O)O

> <PUBCHEM_OPENEYE_ISO_SMILES>
C[C@H]1[C@@H]([C@H]([C@H]([C@@H](O1)O[C@@H]2[C@H]([C@@H](O[C@@H]([C@H]2OC(=O)/C=C/C3=CC(=C(C=C3)O)O)CO[C@H]4[C@@H]([C@](CO4)(CO)O)O)OCCC5=CC(=C(C=C5)O)O)O)O)O)O

> <PUBCHEM_CACTVS_TPSA>
304

> <PUBCHEM_MONOISOTOPIC_WEIGHT>
756.24767917

> <PUBCHEM_TOTAL_CHARGE>
0

> <PUBCHEM_HEAVY_ATOM_COUNT>
53

> <PUBCHEM_ATOM_DEF_STEREO_COUNT>
13

> <PUBCHEM_ATOM_UDEF_STEREO_COUNT>
0

> <PUBCHEM_BOND_DEF_STEREO_COUNT>
1

> <PUBCHEM_BOND_UDEF_STEREO_COUNT>
0

> <PUBCHEM_ISOTOPIC_ATOM_COUNT>
0

> <PUBCHEM_COMPONENT_COUNT>
1

> <PUBCHEM_CACTVS_TAUTO_COUNT>
288

> <PUBCHEM_COORDINATE_TYPE>
1
5
255

> <PUBCHEM_BONDANNOTATIONS>
20  1  5
25  1  6
28  10  5
29  11  5
30  12  6
31  13  5
22  27  5
33  36  5
32  4  6
41  43  8
41  44  8
43  46  8
44  47  8
45  49  8
45  50  8
46  48  8
47  48  8
49  51  8
21  5  6
50  52  8
51  53  8
52  53  8
24  7  5
23  8  6
26  9  5

$$$$
