5280746
     RDKit          2D

 40 44  0  0  1  0  0  0  0  0999 V2000
    6.8671   -3.6796    0.0000 O   0  0  0  0  0  0  0  0  0  0  0  0
    7.8376   -2.1850    0.0000 O   0  0  0  0  0  0  0  0  0  0  0  0
    5.1350   -1.6796    0.0000 O   0  0  0  0  0  0  0  0  0  0  0  0
   10.1818   -2.3432    0.0000 O   0  0  0  0  0  0  0  0  0  0  0  0
    8.8546   -4.5644    0.0000 O   0  0  0  0  0  0  0  0  0  0  0  0
    5.1350   -4.6796    0.0000 O   0  0  0  0  0  0  0  0  0  0  0  0
    6.8671   -1.6796    0.0000 O   0  0  0  0  0  0  0  0  0  0  0  0
    3.4030   -3.6796    0.0000 O   0  0  0  0  0  0  0  0  0  0  0  0
   11.0100   -3.2033    0.0000 O   0  0  0  0  0  0  0  0  0  0  0  0
    2.5369   -2.1796    0.0000 O   0  0  0  0  0  0  0  0  0  0  0  0
    8.6230    1.3829    0.0000 O   0  0  0  0  0  0  0  0  0  0  0  0
    5.1208    1.3996    0.0000 O   0  0  0  0  0  0  0  0  0  0  0  0
    6.0308    2.8930    0.0000 O   0  0  0  0  0  0  0  0  0  0  0  0
   12.0987    4.3696    0.0000 O   0  0  0  0  0  0  0  0  0  0  0  0
    6.0010   -3.1796    0.0000 C   0  0  0  0  0  0  0  0  0  0  0  0
    9.3158   -2.8432    0.0000 C   0  0  0  0  0  0  0  0  0  0  0  0
    8.6466   -3.5863    0.0000 C   0  0  0  0  0  0  0  0  0  0  0  0
    5.1350   -3.6796    0.0000 C   0  0  0  0  0  0  0  0  0  0  0  0
    7.7331   -3.1796    0.0000 C   0  0  0  0  0  0  0  0  0  0  0  0
    4.2690   -3.1796    0.0000 C   0  0  0  0  0  0  0  0  0  0  0  0
    6.0010   -2.1796    0.0000 C   0  0  0  0  0  0  0  0  0  0  0  0
    4.2690   -2.1796    0.0000 C   0  0  0  0  0  0  0  0  0  0  0  0
    8.8158   -1.9771    0.0000 C   0  0  0  0  0  0  0  0  0  0  0  0
   10.0589   -3.5123    0.0000 C   0  0  0  0  0  0  0  0  0  0  0  0
    3.4030   -1.6796    0.0000 C   0  0  0  0  0  0  0  0  0  0  0  0
    6.8671   -0.6796    0.0000 C   0  0  0  0  0  0  0  0  0  0  0  0
    7.7671   -0.1553    0.0000 C   0  0  0  0  0  0  0  0  0  0  0  0
    5.9670   -0.1553    0.0000 C   0  0  0  0  0  0  0  0  0  0  0  0
    7.7551    0.8863    0.0000 C   0  0  0  0  0  0  0  0  0  0  0  0
    5.9790    0.8863    0.0000 C   0  0  0  0  0  0  0  0  0  0  0  0
    6.8910    1.3896    0.0000 C   0  0  0  0  0  0  0  0  0  0  0  0
    6.8948    2.3896    0.0000 C   0  0  0  0  0  0  0  0  0  0  0  0
    8.6269    2.3829    0.0000 C   0  0  0  0  0  0  0  0  0  0  0  0
    7.7628    2.8863    0.0000 C   0  0  0  0  0  0  0  0  0  0  0  0
    9.4948    2.8796    0.0000 C   0  0  0  0  0  0  0  0  0  0  0  0
    9.4987    3.8796    0.0000 C   0  0  0  0  0  0  0  0  0  0  0  0
   10.3589    2.3763    0.0000 C   0  0  0  0  0  0  0  0  0  0  0  0
   10.3666    4.3762    0.0000 C   0  0  0  0  0  0  0  0  0  0  0  0
   11.2269    2.8729    0.0000 C   0  0  0  0  0  0  0  0  0  0  0  0
   11.2307    3.8729    0.0000 C   0  0  0  0  0  0  0  0  0  0  0  0
 15  1  1  6
 19  1  1  6
  2 19  1  0
  2 23  1  0
  3 21  1  0
  3 22  1  0
 16  4  1  1
 17  5  1  1
 18  6  1  1
 21  7  1  1
  7 26  1  0
 20  8  1  6
  9 24  1  0
 10 25  1  0
 11 29  1  0
 11 33  1  0
 12 30  1  0
 13 32  2  0
 14 40  1  0
 15 18  1  0
 15 21  1  0
 16 17  1  0
 16 23  1  0
 16 24  1  0
 17 19  1  0
 18 20  1  0
 20 22  1  0
 22 25  1  1
 26 27  1  0
 26 28  2  0
 27 29  2  0
 28 30  1  0
 29 31  1  0
 30 31  2  0
 31 32  1  0
 32 34  1  0
 33 34  2  0
 33 35  1  0
 35 36  2  0
 35 37  1  0
 36 38  1  0
 37 39  2  0
 38 40  2  0
 39 40  1  0
M  END
>  <PUBCHEM_COMPOUND_CID>  (1) 
5280746

>  <PUBCHEM_COMPOUND_CANONICALIZED>  (1) 
1

>  <PUBCHEM_CACTVS_COMPLEXITY>  (1) 
923

>  <PUBCHEM_CACTVS_HBOND_ACCEPTOR>  (1) 
14

>  <PUBCHEM_CACTVS_HBOND_DONOR>  (1) 
8

>  <PUBCHEM_CACTVS_ROTATABLE_BOND>  (1) 
7

>  <PUBCHEM_CACTVS_SUBSKEYS>  (1) 
AAADceB4PAAAAAAAAAAAAAAAAAAAASAAAAA0YIEAAAAAAACBQAAAGgAACAAADFSwmAMwDoAABgCIAqBSAAACCAAkIAAIiAEGCMgdNzaGNRqieWCl4BUPuQfI7KzOIAAACAAIAABAAAAQABAAAAAAAAAAAA==

>  <PUBCHEM_IUPAC_OPENEYE_NAME>  (1) 
7-[(2S,3R,4S,5S,6R)-3-[(2S,3R,4R)-3,4-dihydroxy-4-(hydroxymethyl)tetrahydrofuran-2-yl]oxy-4,5-dihydroxy-6-(hydroxymethyl)tetrahydropyran-2-yl]oxy-5-hydroxy-2-(4-hydroxyphenyl)chromen-4-one

>  <PUBCHEM_IUPAC_CAS_NAME>  (1) 
7-[[(2S,3R,4S,5S,6R)-3-[[(2S,3R,4R)-3,4-dihydroxy-4-(hydroxymethyl)-2-oxolanyl]oxy]-4,5-dihydroxy-6-(hydroxymethyl)-2-oxanyl]oxy]-5-hydroxy-2-(4-hydroxyphenyl)-1-benzopyran-4-one

>  <PUBCHEM_IUPAC_NAME_MARKUP>  (1) 
7-[(2<I>S</I>,3<I>R</I>,4<I>S</I>,5<I>S</I>,6<I>R</I>)-3-[(2<I>S</I>,3<I>R</I>,4<I>R</I>)-3,4-dihydroxy-4-(hydroxymethyl)oxolan-2-yl]oxy-4,5-dihydroxy-6-(hydroxymethyl)oxan-2-yl]oxy-5-hydroxy-2-(4-hydroxyphenyl)chromen-4-one

>  <PUBCHEM_IUPAC_NAME>  (1) 
7-[(2S,3R,4S,5S,6R)-3-[(2S,3R,4R)-3,4-dihydroxy-4-(hydroxymethyl)oxolan-2-yl]oxy-4,5-dihydroxy-6-(hydroxymethyl)oxan-2-yl]oxy-5-hydroxy-2-(4-hydroxyphenyl)chromen-4-one

>  <PUBCHEM_IUPAC_SYSTEMATIC_NAME>  (1) 
7-[(2S,3R,4S,5S,6R)-6-(hydroxymethyl)-3-[(2S,3R,4R)-4-(hydroxymethyl)-3,4-bis(oxidanyl)oxolan-2-yl]oxy-4,5-bis(oxidanyl)oxan-2-yl]oxy-2-(4-hydroxyphenyl)-5-oxidanyl-chromen-4-one

>  <PUBCHEM_IUPAC_TRADITIONAL_NAME>  (1) 
7-[(2S,3R,4S,5S,6R)-3-[(2S,3R,4R)-3,4-dihydroxy-4-methylol-tetrahydrofuran-2-yl]oxy-4,5-dihydroxy-6-methylol-tetrahydropyran-2-yl]oxy-5-hydroxy-2-(4-hydroxyphenyl)chromone

>  <PUBCHEM_IUPAC_INCHI>  (1) 
InChI=1S/C26H28O14/c27-8-18-20(32)21(33)22(40-25-23(34)26(35,9-28)10-36-25)24(39-18)37-13-5-14(30)19-15(31)7-16(38-17(19)6-13)11-1-3-12(29)4-2-11/h1-7,18,20-25,27-30,32-35H,8-10H2/t18-,20-,21+,22-,23+,24-,25+,26-/m1/s1

>  <PUBCHEM_IUPAC_INCHIKEY>  (1) 
NTDLXWMIWOECHG-YRCFQSNFSA-N

>  <PUBCHEM_XLOGP3_AA>  (1) 
-0.4

>  <PUBCHEM_EXACT_MASS>  (1) 
564.14790556

>  <PUBCHEM_MOLECULAR_FORMULA>  (1) 
C26H28O14

>  <PUBCHEM_MOLECULAR_WEIGHT>  (1) 
564.5

>  <PUBCHEM_OPENEYE_CAN_SMILES>  (1) 
C1C(C(C(O1)OC2C(C(C(OC2OC3=CC(=C4C(=C3)OC(=CC4=O)C5=CC=C(C=C5)O)O)CO)O)O)O)(CO)O

>  <PUBCHEM_OPENEYE_ISO_SMILES>  (1) 
C1[C@@]([C@H]([C@@H](O1)O[C@@H]2[C@H]([C@@H]([C@H](O[C@H]2OC3=CC(=C4C(=C3)OC(=CC4=O)C5=CC=C(C=C5)O)O)CO)O)O)O)(CO)O

>  <PUBCHEM_CACTVS_TPSA>  (1) 
225

>  <PUBCHEM_MONOISOTOPIC_WEIGHT>  (1) 
564.14790556

>  <PUBCHEM_TOTAL_CHARGE>  (1) 
0

>  <PUBCHEM_HEAVY_ATOM_COUNT>  (1) 
40

>  <PUBCHEM_ATOM_DEF_STEREO_COUNT>  (1) 
8

>  <PUBCHEM_ATOM_UDEF_STEREO_COUNT>  (1) 
0

>  <PUBCHEM_BOND_DEF_STEREO_COUNT>  (1) 
0

>  <PUBCHEM_BOND_UDEF_STEREO_COUNT>  (1) 
0

>  <PUBCHEM_ISOTOPIC_ATOM_COUNT>  (1) 
0

>  <PUBCHEM_COMPONENT_COUNT>  (1) 
1

>  <PUBCHEM_CACTVS_TAUTO_COUNT>  (1) 
-1

>  <PUBCHEM_COORDINATE_TYPE>  (1) 
1
5
255

>  <PUBCHEM_BONDANNOTATIONS>  (1) 
15  1  6
19  1  6
11  29  8
11  33  8
22  25  5
26  27  8
26  28  8
27  29  8
28  30  8
29  31  8
30  31  8
31  32  8
32  34  8
33  34  8
35  36  8
35  37  8
36  38  8
37  39  8
38  40  8
39  40  8
16  4  5
17  5  5
18  6  5
21  7  5
20  8  6

$$$$
