65238
     RDKit          2D

 67 72  0  0  1  0  0  0  0  0999 V2000
    8.5991    1.0000    0.0000 O   0  0  0  0  0  0  0  0  0  0  0  0
    8.5991   -2.0000    0.0000 O   0  0  0  0  0  0  0  0  0  0  0  0
    6.8671   -1.0000    0.0000 O   0  0  0  0  0  0  0  0  0  0  0  0
   10.3312   -1.0000    0.0000 O   0  0  0  0  0  0  0  0  0  0  0  0
   10.3312    1.0000    0.0000 O   0  0  0  0  0  0  0  0  0  0  0  0
    6.8671    2.0000    0.0000 O   0  0  0  0  0  0  0  0  0  0  0  0
    6.8671   -2.0000    0.0000 O   0  0  0  0  0  0  0  0  0  0  0  0
    6.0010    0.5000    0.0000 O   0  0  0  0  0  0  0  0  0  0  0  0
   11.1972    0.5000    0.0000 O   0  0  0  0  0  0  0  0  0  0  0  0
    9.4651    2.5000    0.0000 O   0  0  0  0  0  0  0  0  0  0  0  0
    5.1350    2.0000    0.0000 O   0  0  0  0  0  0  0  0  0  0  0  0
    6.0010   -5.5000    0.0000 O   0  0  0  0  0  0  0  0  0  0  0  0
    9.4651   -5.5000    0.0000 O   0  0  0  0  0  0  0  0  0  0  0  0
    4.2690   -3.5000    0.0000 O   0  0  0  0  0  0  0  0  0  0  0  0
    2.5369   -0.5000    0.0000 O   0  0  0  0  0  0  0  0  0  0  0  0
   12.9292   -3.5000    0.0000 O   0  0  0  0  0  0  0  0  0  0  0  0
   14.6613   -0.5000    0.0000 O   0  0  0  0  0  0  0  0  0  0  0  0
    7.7331   -6.5000    0.0000 O   0  0  0  0  0  0  0  0  0  0  0  0
    2.5369   -2.5000    0.0000 O   0  0  0  0  0  0  0  0  0  0  0  0
   13.7953    2.0000    0.0000 O   0  0  0  0  0  0  0  0  0  0  0  0
   12.0632    5.0000    0.0000 O   0  0  0  0  0  0  0  0  0  0  0  0
   14.6613   -2.5000    0.0000 O   0  0  0  0  0  0  0  0  0  0  0  0
   13.7953    4.0000    0.0000 O   0  0  0  0  0  0  0  0  0  0  0  0
    7.7331    5.5000    0.0000 O   0  0  0  0  0  0  0  0  0  0  0  0
    4.2690    5.5000    0.0000 O   0  0  0  0  0  0  0  0  0  0  0  0
    6.0010    6.5000    0.0000 O   0  0  0  0  0  0  0  0  0  0  0  0
    8.5991   -1.0000    0.0000 C   0  0  0  0  0  0  0  0  0  0  0  0
    7.7331   -0.5000    0.0000 C   0  0  0  0  0  0  0  0  0  0  0  0
    9.4651   -0.5000    0.0000 C   0  0  0  0  0  0  0  0  0  0  0  0
    7.7331    0.5000    0.0000 C   0  0  0  0  0  0  0  0  0  0  0  0
    9.4651    0.5000    0.0000 C   0  0  0  0  0  0  0  0  0  0  0  0
    6.8671    1.0000    0.0000 C   0  0  0  0  0  0  0  0  0  0  0  0
    7.7331   -2.5000    0.0000 C   0  0  0  0  0  0  0  0  0  0  0  0
    6.0010   -0.5000    0.0000 C   0  0  0  0  0  0  0  0  0  0  0  0
   11.1972   -0.5000    0.0000 C   0  0  0  0  0  0  0  0  0  0  0  0
   10.3312    2.0000    0.0000 C   0  0  0  0  0  0  0  0  0  0  0  0
    7.7331   -3.5000    0.0000 C   0  0  0  0  0  0  0  0  0  0  0  0
    5.1350   -1.0000    0.0000 C   0  0  0  0  0  0  0  0  0  0  0  0
    6.0010    2.5000    0.0000 C   0  0  0  0  0  0  0  0  0  0  0  0
   12.0632   -1.0000    0.0000 C   0  0  0  0  0  0  0  0  0  0  0  0
   11.1972    2.5000    0.0000 C   0  0  0  0  0  0  0  0  0  0  0  0
    6.0010    3.5000    0.0000 C   0  0  0  0  0  0  0  0  0  0  0  0
    8.5991   -4.0000    0.0000 C   0  0  0  0  0  0  0  0  0  0  0  0
    6.8671   -4.0000    0.0000 C   0  0  0  0  0  0  0  0  0  0  0  0
    4.2690   -0.5000    0.0000 C   0  0  0  0  0  0  0  0  0  0  0  0
    5.1350   -2.0000    0.0000 C   0  0  0  0  0  0  0  0  0  0  0  0
   12.9292   -0.5000    0.0000 C   0  0  0  0  0  0  0  0  0  0  0  0
   12.0632   -2.0000    0.0000 C   0  0  0  0  0  0  0  0  0  0  0  0
   11.1972    3.5000    0.0000 C   0  0  0  0  0  0  0  0  0  0  0  0
   12.0632    2.0000    0.0000 C   0  0  0  0  0  0  0  0  0  0  0  0
    6.8671   -5.0000    0.0000 C   0  0  0  0  0  0  0  0  0  0  0  0
    8.5991   -5.0000    0.0000 C   0  0  0  0  0  0  0  0  0  0  0  0
    4.2690   -2.5000    0.0000 C   0  0  0  0  0  0  0  0  0  0  0  0
    3.4030   -1.0000    0.0000 C   0  0  0  0  0  0  0  0  0  0  0  0
   12.9292   -2.5000    0.0000 C   0  0  0  0  0  0  0  0  0  0  0  0
   13.7953   -1.0000    0.0000 C   0  0  0  0  0  0  0  0  0  0  0  0
    5.1350    4.0000    0.0000 C   0  0  0  0  0  0  0  0  0  0  0  0
    6.8671    4.0000    0.0000 C   0  0  0  0  0  0  0  0  0  0  0  0
    7.7331   -5.5000    0.0000 C   0  0  0  0  0  0  0  0  0  0  0  0
    3.4030   -2.0000    0.0000 C   0  0  0  0  0  0  0  0  0  0  0  0
   12.9292    2.5000    0.0000 C   0  0  0  0  0  0  0  0  0  0  0  0
   12.0632    4.0000    0.0000 C   0  0  0  0  0  0  0  0  0  0  0  0
   13.7953   -2.0000    0.0000 C   0  0  0  0  0  0  0  0  0  0  0  0
   12.9292    3.5000    0.0000 C   0  0  0  0  0  0  0  0  0  0  0  0
    6.8671    5.0000    0.0000 C   0  0  0  0  0  0  0  0  0  0  0  0
    5.1350    5.0000    0.0000 C   0  0  0  0  0  0  0  0  0  0  0  0
    6.0010    5.5000    0.0000 C   0  0  0  0  0  0  0  0  0  0  0  0
  1 30  1  0
  1 31  1  0
 27  2  1  1
  2 33  1  0
 28  3  1  6
  3 34  1  0
 29  4  1  6
  4 35  1  0
 31  5  1  1
  5 36  1  0
  6 32  1  0
  6 39  1  0
  7 33  2  0
  8 34  2  0
  9 35  2  0
 10 36  2  0
 11 39  2  0
 12 51  1  0
 13 52  1  0
 14 53  1  0
 15 54  1  0
 16 55  1  0
 17 56  1  0
 18 59  1  0
 19 60  1  0
 20 61  1  0
 21 62  1  0
 22 63  1  0
 23 64  1  0
 24 65  1  0
 25 66  1  0
 26 67  1  0
 27 28  1  0
 27 29  1  0
 28 30  1  0
 29 31  1  0
 30 32  1  1
 33 37  1  0
 34 38  1  0
 35 40  1  0
 36 41  1  0
 37 43  2  0
 37 44  1  0
 38 45  2  0
 38 46  1  0
 39 42  1  0
 40 47  2  0
 40 48  1  0
 41 49  2  0
 41 50  1  0
 42 57  2  0
 42 58  1  0
 43 52  1  0
 44 51  2  0
 45 54  1  0
 46 53  2  0
 47 56  1  0
 48 55  2  0
 49 62  1  0
 50 61  2  0
 51 59  1  0
 52 59  2  0
 53 60  1  0
 54 60  2  0
 55 63  1  0
 56 63  2  0
 57 66  1  0
 58 65  2  0
 61 64  1  0
 62 64  2  0
 65 67  1  0
 66 67  2  0
M  END
>  <PUBCHEM_COMPOUND_CID>  (1) 
65238

>  <PUBCHEM_COMPOUND_CANONICALIZED>  (1) 
1

>  <PUBCHEM_CACTVS_COMPLEXITY>  (1) 
1680

>  <PUBCHEM_CACTVS_HBOND_ACCEPTOR>  (1) 
26

>  <PUBCHEM_CACTVS_HBOND_DONOR>  (1) 
15

>  <PUBCHEM_CACTVS_ROTATABLE_BOND>  (1) 
16

>  <PUBCHEM_CACTVS_SUBSKEYS>  (1) 
AAADcfB8PgAAAAAAAAAAAAAAAAAAAAAAAAA0YMGDAAAAAAABVAAAGgAACAAADBSwmAMwDoAABgCIAiDSCAACAAAkIAAAiAEGiMgZJzKCNRqicQElwBUPuYfK7DzOIAABCAAAQABAAAIQAACAAAAAAAAAAA==

>  <PUBCHEM_IUPAC_OPENEYE_NAME>  (1) 
[(2R,3R,4S,5R,6S)-3,4,5,6-tetrakis[(3,4,5-trihydroxybenzoyl)oxy]tetrahydropyran-2-yl]methyl 3,4,5-trihydroxybenzoate

>  <PUBCHEM_IUPAC_CAS_NAME>  (1) 
3,4,5-trihydroxybenzoic acid [(2R,3R,4S,5R,6S)-3,4,5,6-tetrakis[oxo-(3,4,5-trihydroxyphenyl)methoxy]-2-oxanyl]methyl ester

>  <PUBCHEM_IUPAC_NAME_MARKUP>  (1) 
[(2<I>R</I>,3<I>R</I>,4<I>S</I>,5<I>R</I>,6<I>S</I>)-3,4,5,6-tetrakis[(3,4,5-trihydroxybenzoyl)oxy]oxan-2-yl]methyl 3,4,5-trihydroxybenzoate

>  <PUBCHEM_IUPAC_NAME>  (1) 
[(2R,3R,4S,5R,6S)-3,4,5,6-tetrakis[(3,4,5-trihydroxybenzoyl)oxy]oxan-2-yl]methyl 3,4,5-trihydroxybenzoate

>  <PUBCHEM_IUPAC_SYSTEMATIC_NAME>  (1) 
[(2R,3R,4S,5R,6S)-3,4,5,6-tetrakis[[3,4,5-tris(oxidanyl)phenyl]carbonyloxy]oxan-2-yl]methyl 3,4,5-tris(oxidanyl)benzoate

>  <PUBCHEM_IUPAC_TRADITIONAL_NAME>  (1) 
3,4,5-trihydroxybenzoic acid [(2R,3R,4S,5R,6S)-3,4,5,6-tetragalloyloxytetrahydropyran-2-yl]methyl ester

>  <PUBCHEM_IUPAC_INCHI>  (1) 
InChI=1S/C41H32O26/c42-17-1-12(2-18(43)28(17)52)36(57)62-11-27-33(64-37(58)13-3-19(44)29(53)20(45)4-13)34(65-38(59)14-5-21(46)30(54)22(47)6-14)35(66-39(60)15-7-23(48)31(55)24(49)8-15)41(63-27)67-40(61)16-9-25(50)32(56)26(51)10-16/h1-10,27,33-35,41-56H,11H2/t27-,33-,34+,35-,41+/m1/s1

>  <PUBCHEM_IUPAC_INCHIKEY>  (1) 
QJYNZEYHSMRWBK-NIKIMHBISA-N

>  <PUBCHEM_XLOGP3>  (1) 
3.6

>  <PUBCHEM_EXACT_MASS>  (1) 
940.11818112

>  <PUBCHEM_MOLECULAR_FORMULA>  (1) 
C41H32O26

>  <PUBCHEM_MOLECULAR_WEIGHT>  (1) 
940.7

>  <PUBCHEM_OPENEYE_CAN_SMILES>  (1) 
C1=C(C=C(C(=C1O)O)O)C(=O)OCC2C(C(C(C(O2)OC(=O)C3=CC(=C(C(=C3)O)O)O)OC(=O)C4=CC(=C(C(=C4)O)O)O)OC(=O)C5=CC(=C(C(=C5)O)O)O)OC(=O)C6=CC(=C(C(=C6)O)O)O

>  <PUBCHEM_OPENEYE_ISO_SMILES>  (1) 
C1=C(C=C(C(=C1O)O)O)C(=O)OC[C@@H]2[C@H]([C@@H]([C@H]([C@@H](O2)OC(=O)C3=CC(=C(C(=C3)O)O)O)OC(=O)C4=CC(=C(C(=C4)O)O)O)OC(=O)C5=CC(=C(C(=C5)O)O)O)OC(=O)C6=CC(=C(C(=C6)O)O)O

>  <PUBCHEM_CACTVS_TPSA>  (1) 
444

>  <PUBCHEM_MONOISOTOPIC_WEIGHT>  (1) 
940.11818112

>  <PUBCHEM_TOTAL_CHARGE>  (1) 
0

>  <PUBCHEM_HEAVY_ATOM_COUNT>  (1) 
67

>  <PUBCHEM_ATOM_DEF_STEREO_COUNT>  (1) 
5

>  <PUBCHEM_ATOM_UDEF_STEREO_COUNT>  (1) 
0

>  <PUBCHEM_BOND_DEF_STEREO_COUNT>  (1) 
0

>  <PUBCHEM_BOND_UDEF_STEREO_COUNT>  (1) 
0

>  <PUBCHEM_ISOTOPIC_ATOM_COUNT>  (1) 
0

>  <PUBCHEM_COMPONENT_COUNT>  (1) 
1

>  <PUBCHEM_CACTVS_TAUTO_COUNT>  (1) 
-1

>  <PUBCHEM_COORDINATE_TYPE>  (1) 
1
5
255

>  <PUBCHEM_BONDANNOTATIONS>  (1) 
27  2  5
28  3  6
30  32  5
37  43  8
37  44  8
38  45  8
38  46  8
29  4  6
40  47  8
40  48  8
41  49  8
41  50  8
42  57  8
42  58  8
43  52  8
44  51  8
45  54  8
46  53  8
47  56  8
48  55  8
49  62  8
31  5  5
50  61  8
51  59  8
52  59  8
53  60  8
54  60  8
55  63  8
56  63  8
57  66  8
58  65  8
61  64  8
62  64  8
65  67  8
66  67  8

$$$$
