JBB20_0041
  -OEChem-04162410092D

111117  0     1  0  0  0  0  0999 V2000
   12.3923    1.0443    0.0000 O   0  0  0  0  0  0  0  0  0  0  0  0
   10.6603    1.0443    0.0000 O   0  0  0  0  0  0  0  0  0  0  0  0
    8.9282    3.0443    0.0000 O   0  0  0  0  0  0  0  0  0  0  0  0
   11.0177   -2.3952    0.0000 O   0  0  0  0  0  0  0  0  0  0  0  0
    7.1962    3.0443    0.0000 O   0  0  0  0  0  0  0  0  0  0  0  0
    5.4641    1.0443    0.0000 O   0  0  0  0  0  0  0  0  0  0  0  0
   11.5851   -3.5445    0.0000 O   0  0  0  0  0  0  0  0  0  0  0  0
   14.1410    1.0299    0.0000 O   0  0  0  0  0  0  0  0  0  0  0  0
    7.1962    0.0443    0.0000 O   0  0  0  0  0  0  0  0  0  0  0  0
   13.3167   -3.5045    0.0000 O   0  0  0  0  0  0  0  0  0  0  0  0
    3.7320    1.0443    0.0000 O   0  0  0  0  0  0  0  0  0  0  0  0
   15.8889    1.0847    0.0000 O   0  0  0  0  0  0  0  0  0  0  0  0
   15.9359   -2.9842    0.0000 O   0  0  0  0  0  0  0  0  0  0  0  0
   17.7255    1.1490    0.0000 O   0  0  0  0  0  0  0  0  0  0  0  0
    2.0000    3.0443    0.0000 O   0  0  0  0  0  0  0  0  0  0  0  0
   10.6603    4.0443    0.0000 N   0  0  0  0  0  0  0  0  0  0  0  0
   11.5043   -1.5216    0.0000 C   0  0  2  0  0  0  0  0  0  0  0  0
   12.3923    0.0443    0.0000 C   0  0  1  0  0  0  0  0  0  0  0  0
   11.4922   -0.4800    0.0000 C   0  0  0  0  0  0  0  0  0  0  0  0
   12.4162   -2.0249    0.0000 C   0  0  1  0  0  0  0  0  0  0  0  0
   10.6603    3.0443    0.0000 C   0  0  2  0  0  0  0  0  0  0  0  0
    9.7942    2.5443    0.0000 C   0  0  1  0  0  0  0  0  0  0  0  0
   11.5263    2.5443    0.0000 C   0  0  0  0  0  0  0  0  0  0  0  0
   11.5263    1.5443    0.0000 C   0  0  2  0  0  0  0  0  0  0  0  0
   13.2924   -0.4800    0.0000 C   0  0  0  0  0  0  0  0  0  0  0  0
   13.3039   -1.4800    0.0000 C   0  0  0  0  0  0  0  0  0  0  0  0
    9.7942    1.5443    0.0000 C   0  0  2  0  0  0  0  0  0  0  0  0
   10.5044   -1.5370    0.0000 C   0  0  0  0  0  0  0  0  0  0  0  0
    8.0622    2.5443    0.0000 C   0  0  2  0  0  0  0  0  0  0  0  0
   14.1526    0.0300    0.0000 C   0  0  0  0  0  0  0  0  0  0  0  0
   14.1757   -1.9699    0.0000 C   0  0  0  0  0  0  0  0  0  0  0  0
    8.0622    1.5443    0.0000 C   0  0  0  0  0  0  0  0  0  0  0  0
   12.4394   -3.0246    0.0000 C   0  0  0  0  0  0  0  0  0  0  0  0
    6.3301    1.5443    0.0000 C   0  0  1  0  0  0  0  0  0  0  0  0
    7.1962    1.0443    0.0000 C   0  0  1  0  0  0  0  0  0  0  0  0
    8.9282    1.0443    0.0000 C   0  0  0  0  0  0  0  0  0  0  0  0
    6.3301    2.5443    0.0000 C   0  0  2  0  0  0  0  0  0  0  0  0
   15.0243   -0.4600    0.0000 C   0  0  0  0  0  0  0  0  0  0  0  0
    9.9911   -0.6788    0.0000 C   0  0  0  0  0  0  0  0  0  0  0  0
   15.0359   -1.4599    0.0000 C   0  0  0  0  0  0  0  0  0  0  0  0
   11.5263    4.5443    0.0000 C   0  0  0  0  0  0  0  0  0  0  0  0
    9.7942    4.5443    0.0000 C   0  0  0  0  0  0  0  0  0  0  0  0
    5.4641    3.0443    0.0000 C   0  0  0  0  0  0  0  0  0  0  0  0
   15.9120    0.0850    0.0000 C   0  0  0  0  0  0  0  0  0  0  0  0
   15.9359   -1.9842    0.0000 C   0  0  0  0  0  0  0  0  0  0  0  0
    4.5981    1.5443    0.0000 C   0  0  2  0  0  0  0  0  0  0  0  0
   16.8240   -0.4184    0.0000 C   0  0  0  0  0  0  0  0  0  0  0  0
   16.8360   -1.4599    0.0000 C   0  0  0  0  0  0  0  0  0  0  0  0
    4.5981    2.5443    0.0000 C   0  0  0  0  0  0  0  0  0  0  0  0
    3.7320    3.0443    0.0000 C   0  0  0  0  0  0  0  0  0  0  0  0
   11.6083   -4.5443    0.0000 C   0  0  0  0  0  0  0  0  0  0  0  0
    2.8660    1.5443    0.0000 C   0  0  2  0  0  0  0  0  0  0  0  0
   17.7486    0.1493    0.0000 C   0  0  0  0  0  0  0  0  0  0  0  0
   17.7735   -2.0060    0.0000 C   0  0  0  0  0  0  0  0  0  0  0  0
    2.8660    2.5443    0.0000 C   0  0  0  0  0  0  0  0  0  0  0  0
   18.6985   -0.3750    0.0000 C   0  0  0  0  0  0  0  0  0  0  0  0
   18.7111   -1.4599    0.0000 C   0  0  0  0  0  0  0  0  0  0  0  0
    2.0000    1.0443    0.0000 C   0  0  0  0  0  0  0  0  0  0  0  0
   11.8548    0.3532    0.0000 H   0  0  0  0  0  0  0  0  0  0  0  0
   11.2765    0.1012    0.0000 H   0  0  0  0  0  0  0  0  0  0  0  0
   10.8827   -0.5932    0.0000 H   0  0  0  0  0  0  0  0  0  0  0  0
   11.8860   -2.3462    0.0000 H   0  0  0  0  0  0  0  0  0  0  0  0
   11.1972    3.3543    0.0000 H   0  0  0  0  0  0  0  0  0  0  0  0
    9.2573    2.2343    0.0000 H   0  0  0  0  0  0  0  0  0  0  0  0
   12.1369    2.4366    0.0000 H   0  0  0  0  0  0  0  0  0  0  0  0
   11.7383    3.1269    0.0000 H   0  0  0  0  0  0  0  0  0  0  0  0
   11.5263    0.9243    0.0000 H   0  0  0  0  0  0  0  0  0  0  0  0
    9.7942    0.9243    0.0000 H   0  0  0  0  0  0  0  0  0  0  0  0
    9.9251   -1.7580    0.0000 H   0  0  0  0  0  0  0  0  0  0  0  0
   10.6215   -2.1458    0.0000 H   0  0  0  0  0  0  0  0  0  0  0  0
    8.0622    3.1643    0.0000 H   0  0  0  0  0  0  0  0  0  0  0  0
   14.1829   -2.5899    0.0000 H   0  0  0  0  0  0  0  0  0  0  0  0
    8.2742    0.9617    0.0000 H   0  0  0  0  0  0  0  0  0  0  0  0
    8.6728    1.6519    0.0000 H   0  0  0  0  0  0  0  0  0  0  0  0
    6.3301    0.9243    0.0000 H   0  0  0  0  0  0  0  0  0  0  0  0
    7.7331    0.7343    0.0000 H   0  0  0  0  0  0  0  0  0  0  0  0
   10.3978   -2.4048    0.0000 H   0  0  0  0  0  0  0  0  0  0  0  0
    8.6182    1.5812    0.0000 H   0  0  0  0  0  0  0  0  0  0  0  0
    8.3913    0.7343    0.0000 H   0  0  0  0  0  0  0  0  0  0  0  0
    9.2382    0.5073    0.0000 H   0  0  0  0  0  0  0  0  0  0  0  0
    6.3301    3.1643    0.0000 H   0  0  0  0  0  0  0  0  0  0  0  0
   10.5232   -0.3605    0.0000 H   0  0  0  0  0  0  0  0  0  0  0  0
    9.6729   -0.1467    0.0000 H   0  0  0  0  0  0  0  0  0  0  0  0
    9.4590   -0.9970    0.0000 H   0  0  0  0  0  0  0  0  0  0  0  0
   11.8363    4.0073    0.0000 H   0  0  0  0  0  0  0  0  0  0  0  0
   12.0632    4.8543    0.0000 H   0  0  0  0  0  0  0  0  0  0  0  0
   11.2163    5.0812    0.0000 H   0  0  0  0  0  0  0  0  0  0  0  0
   10.1042    5.0812    0.0000 H   0  0  0  0  0  0  0  0  0  0  0  0
    9.2573    4.8543    0.0000 H   0  0  0  0  0  0  0  0  0  0  0  0
    9.4842    4.0073    0.0000 H   0  0  0  0  0  0  0  0  0  0  0  0
    5.7741    3.5812    0.0000 H   0  0  0  0  0  0  0  0  0  0  0  0
    4.9272    3.3543    0.0000 H   0  0  0  0  0  0  0  0  0  0  0  0
    5.1541    2.5073    0.0000 H   0  0  0  0  0  0  0  0  0  0  0  0
    4.5981    0.9243    0.0000 H   0  0  0  0  0  0  0  0  0  0  0  0
   14.6743    1.3461    0.0000 H   0  0  0  0  0  0  0  0  0  0  0  0
    7.7331   -0.2657    0.0000 H   0  0  0  0  0  0  0  0  0  0  0  0
    5.2087    2.4366    0.0000 H   0  0  0  0  0  0  0  0  0  0  0  0
    4.8101    3.1269    0.0000 H   0  0  0  0  0  0  0  0  0  0  0  0
    4.1306    3.5192    0.0000 H   0  0  0  0  0  0  0  0  0  0  0  0
    3.3335    3.5192    0.0000 H   0  0  0  0  0  0  0  0  0  0  0  0
   10.9884   -4.5586    0.0000 H   0  0  0  0  0  0  0  0  0  0  0  0
   11.6226   -5.1641    0.0000 H   0  0  0  0  0  0  0  0  0  0  0  0
   12.2281   -4.5299    0.0000 H   0  0  0  0  0  0  0  0  0  0  0  0
    2.8660    0.9243    0.0000 H   0  0  0  0  0  0  0  0  0  0  0  0
   17.7735   -2.6260    0.0000 H   0  0  0  0  0  0  0  0  0  0  0  0
   19.2306   -0.0568    0.0000 H   0  0  0  0  0  0  0  0  0  0  0  0
   19.2504   -1.7658    0.0000 H   0  0  0  0  0  0  0  0  0  0  0  0
    1.6900    1.5812    0.0000 H   0  0  0  0  0  0  0  0  0  0  0  0
    1.4631    0.7343    0.0000 H   0  0  0  0  0  0  0  0  0  0  0  0
    2.3100    0.5073    0.0000 H   0  0  0  0  0  0  0  0  0  0  0  0
   18.2551    1.4714    0.0000 H   0  0  0  0  0  0  0  0  0  0  0  0
 18  1  1  6  0  0  0
 24  1  1  6  0  0  0
  2 24  1  0  0  0  0
  2 27  1  0  0  0  0
 22  3  1  1  0  0  0
 29  3  1  1  0  0  0
 17  4  1  6  0  0  0
  4 77  1  0  0  0  0
  5 29  1  0  0  0  0
  5 37  1  0  0  0  0
 34  6  1  6  0  0  0
 46  6  1  6  0  0  0
  7 33  1  0  0  0  0
  7 51  1  0  0  0  0
  8 30  1  0  0  0  0
  8 95  1  0  0  0  0
 35  9  1  6  0  0  0
  9 96  1  0  0  0  0
 10 33  2  0  0  0  0
 11 46  1  0  0  0  0
 11 52  1  0  0  0  0
 12 44  2  0  0  0  0
 13 45  2  0  0  0  0
 14 53  1  0  0  0  0
 14111  1  0  0  0  0
 15 55  2  0  0  0  0
 21 16  1  1  0  0  0
 16 41  1  0  0  0  0
 16 42  1  0  0  0  0
 17 19  1  0  0  0  0
 17 20  1  0  0  0  0
 17 28  1  0  0  0  0
 18 19  1  0  0  0  0
 18 25  1  0  0  0  0
 18 59  1  0  0  0  0
 19 60  1  0  0  0  0
 19 61  1  0  0  0  0
 20 26  1  0  0  0  0
 20 33  1  1  0  0  0
 20 62  1  0  0  0  0
 21 22  1  0  0  0  0
 21 23  1  0  0  0  0
 21 63  1  0  0  0  0
 22 27  1  0  0  0  0
 22 64  1  0  0  0  0
 23 24  1  0  0  0  0
 23 65  1  0  0  0  0
 23 66  1  0  0  0  0
 24 67  1  0  0  0  0
 25 26  1  0  0  0  0
 25 30  2  0  0  0  0
 26 31  2  0  0  0  0
 27 36  1  1  0  0  0
 27 68  1  0  0  0  0
 28 39  1  0  0  0  0
 28 69  1  0  0  0  0
 28 70  1  0  0  0  0
 29 32  1  0  0  0  0
 29 71  1  0  0  0  0
 30 38  1  0  0  0  0
 31 40  1  0  0  0  0
 31 72  1  0  0  0  0
 32 35  1  0  0  0  0
 32 73  1  0  0  0  0
 32 74  1  0  0  0  0
 34 35  1  0  0  0  0
 34 37  1  0  0  0  0
 34 75  1  0  0  0  0
 35 76  1  0  0  0  0
 36 78  1  0  0  0  0
 36 79  1  0  0  0  0
 36 80  1  0  0  0  0
 37 43  1  6  0  0  0
 37 81  1  0  0  0  0
 38 40  2  0  0  0  0
 38 44  1  0  0  0  0
 39 82  1  0  0  0  0
 39 83  1  0  0  0  0
 39 84  1  0  0  0  0
 40 45  1  0  0  0  0
 41 85  1  0  0  0  0
 41 86  1  0  0  0  0
 41 87  1  0  0  0  0
 42 88  1  0  0  0  0
 42 89  1  0  0  0  0
 42 90  1  0  0  0  0
 43 91  1  0  0  0  0
 43 92  1  0  0  0  0
 43 93  1  0  0  0  0
 44 47  1  0  0  0  0
 45 48  1  0  0  0  0
 46 49  1  0  0  0  0
 46 94  1  0  0  0  0
 47 48  2  0  0  0  0
 47 53  1  0  0  0  0
 48 54  1  0  0  0  0
 49 50  1  0  0  0  0
 49 97  1  0  0  0  0
 49 98  1  0  0  0  0
 50 55  1  0  0  0  0
 50 99  1  0  0  0  0
 50100  1  0  0  0  0
 51101  1  0  0  0  0
 51102  1  0  0  0  0
 51103  1  0  0  0  0
 52 55  1  0  0  0  0
 52 58  1  1  0  0  0
 52104  1  0  0  0  0
 53 56  2  0  0  0  0
 54 57  2  0  0  0  0
 54105  1  0  0  0  0
 56 57  1  0  0  0  0
 56106  1  0  0  0  0
 57107  1  0  0  0  0
 58108  1  0  0  0  0
 58109  1  0  0  0  0
 58110  1  0  0  0  0
M  END
> <PUBCHEM_COMPOUND_CID>
451415

> <PUBCHEM_COMPOUND_CANONICALIZED>
1

> <PUBCHEM_CACTVS_COMPLEXITY>
1530

> <PUBCHEM_CACTVS_HBOND_ACCEPTOR>
16

> <PUBCHEM_CACTVS_HBOND_DONOR>
4

> <PUBCHEM_CACTVS_ROTATABLE_BOND>
10

> <PUBCHEM_CACTVS_SUBSKEYS>
AAADcfB+PAAAAAAAAAAAAAAAAAAAAAAAAAA0aNGCAAAAAADBQAAAHgAACAAADXzxmAcyDoMABgCIAqDSCAICAAAkIAAIiAFOCMgbNzaCtR6ncUAn4BEfuYfL7PzOwAADAAAYAADAAAYQADAAAAAAAAAAAA==

> <PUBCHEM_IUPAC_OPENEYE_NAME>
methyl (1R,2R,4S)-4-[(2R,4S,5S,6S)-4-(dimethylamino)-5-[(2S,4S,5S,6S)-4-hydroxy-6-methyl-5-[(2R,6S)-6-methyl-5-oxo-tetrahydropyran-2-yl]oxy-tetrahydropyran-2-yl]oxy-6-methyl-tetrahydropyran-2-yl]oxy-2-ethyl-2,5,7-trihydroxy-6,11-dioxo-3,4-dihydro-1H-tetracene-1-carboxylate

> <PUBCHEM_IUPAC_CAS_NAME>
(1R,2R,4S)-4-[[(2R,4S,5S,6S)-4-(dimethylamino)-5-[[(2S,4S,5S,6S)-4-hydroxy-6-methyl-5-[[(2R,6S)-6-methyl-5-oxo-2-oxanyl]oxy]-2-oxanyl]oxy]-6-methyl-2-oxanyl]oxy]-2-ethyl-2,5,7-trihydroxy-6,11-dioxo-3,4-dihydro-1H-tetracene-1-carboxylic acid methyl ester

> <PUBCHEM_IUPAC_NAME_MARKUP>
methyl (1<I>R</I>,2<I>R</I>,4<I>S</I>)-4-[(2<I>R</I>,4<I>S</I>,5<I>S</I>,6<I>S</I>)-4-(dimethylamino)-5-[(2<I>S</I>,4<I>S</I>,5<I>S</I>,6<I>S</I>)-4-hydroxy-6-methyl-5-[(2<I>R</I>,6<I>S</I>)-6-methyl-5-oxooxan-2-yl]oxyoxan-2-yl]oxy-6-methyloxan-2-yl]oxy-2-ethyl-2,5,7-trihydroxy-6,11-dioxo-3,4-dihydro-1<I>H</I>-tetracene-1-carboxylate

> <PUBCHEM_IUPAC_NAME>
methyl (1R,2R,4S)-4-[(2R,4S,5S,6S)-4-(dimethylamino)-5-[(2S,4S,5S,6S)-4-hydroxy-6-methyl-5-[(2R,6S)-6-methyl-5-oxooxan-2-yl]oxyoxan-2-yl]oxy-6-methyloxan-2-yl]oxy-2-ethyl-2,5,7-trihydroxy-6,11-dioxo-3,4-dihydro-1H-tetracene-1-carboxylate

> <PUBCHEM_IUPAC_SYSTEMATIC_NAME>
methyl (1R,2R,4S)-4-[(2R,4S,5S,6S)-4-(dimethylamino)-6-methyl-5-[(2S,4S,5S,6S)-6-methyl-5-[(2R,6S)-6-methyl-5-oxidanylidene-oxan-2-yl]oxy-4-oxidanyl-oxan-2-yl]oxy-oxan-2-yl]oxy-2-ethyl-2,5,7-tris(oxidanyl)-6,11-bis(oxidanylidene)-3,4-dihydro-1H-tetracene-1-carboxylate

> <PUBCHEM_IUPAC_TRADITIONAL_NAME>
(1R,2R,4S)-4-[(2R,4S,5S,6S)-4-(dimethylamino)-5-[(2S,4S,5S,6S)-4-hydroxy-5-[(2R,6S)-5-keto-6-methyl-tetrahydropyran-2-yl]oxy-6-methyl-tetrahydropyran-2-yl]oxy-6-methyl-tetrahydropyran-2-yl]oxy-2-ethyl-2,5,7-trihydroxy-6,11-diketo-3,4-dihydro-1H-tetracene-1-carboxylic acid methyl ester

> <PUBCHEM_IUPAC_INCHI>
InChI=1S/C42H53NO15/c1-8-42(51)17-28(33-22(35(42)41(50)52-7)14-23-34(38(33)49)37(48)32-21(36(23)47)10-9-11-26(32)45)56-30-15-24(43(5)6)39(19(3)54-30)58-31-16-27(46)40(20(4)55-31)57-29-13-12-25(44)18(2)53-29/h9-11,14,18-20,24,27-31,35,39-40,45-46,49,51H,8,12-13,15-17H2,1-7H3/t18-,19-,20-,24-,27-,28-,29-,30-,31-,35-,39+,40+,42+/m0/s1

> <PUBCHEM_IUPAC_INCHIKEY>
USZYSDMBJDPRIF-SVEJIMAYSA-N

> <PUBCHEM_XLOGP3_AA>
3.8

> <PUBCHEM_EXACT_MASS>
811.34151998

> <PUBCHEM_MOLECULAR_FORMULA>
C42H53NO15

> <PUBCHEM_MOLECULAR_WEIGHT>
811.9

> <PUBCHEM_OPENEYE_CAN_SMILES>
CCC1(CC(C2=C(C3=C(C=C2C1C(=O)OC)C(=O)C4=C(C3=O)C(=CC=C4)O)O)OC5CC(C(C(O5)C)OC6CC(C(C(O6)C)OC7CCC(=O)C(O7)C)O)N(C)C)O

> <PUBCHEM_OPENEYE_ISO_SMILES>
CC[C@]1(C[C@@H](C2=C(C3=C(C=C2[C@H]1C(=O)OC)C(=O)C4=C(C3=O)C(=CC=C4)O)O)O[C@H]5C[C@@H]([C@@H]([C@@H](O5)C)O[C@H]6C[C@@H]([C@@H]([C@@H](O6)C)O[C@H]7CCC(=O)[C@@H](O7)C)O)N(C)C)O

> <PUBCHEM_CACTVS_TPSA>
217

> <PUBCHEM_MONOISOTOPIC_WEIGHT>
811.34151998

> <PUBCHEM_TOTAL_CHARGE>
0

> <PUBCHEM_HEAVY_ATOM_COUNT>
58

> <PUBCHEM_ATOM_DEF_STEREO_COUNT>
13

> <PUBCHEM_ATOM_UDEF_STEREO_COUNT>
0

> <PUBCHEM_BOND_DEF_STEREO_COUNT>
0

> <PUBCHEM_BOND_UDEF_STEREO_COUNT>
0

> <PUBCHEM_ISOTOPIC_ATOM_COUNT>
0

> <PUBCHEM_COMPONENT_COUNT>
1

> <PUBCHEM_CACTVS_TAUTO_COUNT>
-1

> <PUBCHEM_COORDINATE_TYPE>
1
5
255

> <PUBCHEM_BONDANNOTATIONS>
18  1  6
24  1  6
21  16  5
20  33  5
25  26  8
25  30  8
26  31  8
27  36  5
22  3  5
29  3  5
30  38  8
31  40  8
37  43  6
38  40  8
17  4  6
47  48  8
47  53  8
48  54  8
52  58  5
53  56  8
54  57  8
56  57  8
34  6  6
46  6  6
35  9  6

$$$$
