5361
     RDKit          2D

 86 93  0  0  0  0  0  0  0  0999 V2000
    4.6351   -0.5076    0.0000 S   0  0  0  0  0  0  0  0  0  0  0  0
   24.0625    2.3758    0.0000 S   0  0  0  0  0  0  0  0  0  0  0  0
    6.8834    3.3931    0.0000 S   0  0  0  0  0  0  0  0  0  0  0  0
   27.9630    0.1273    0.0000 S   0  0  0  0  0  0  0  0  0  0  0  0
    3.4030    2.3585    0.0000 S   0  0  0  0  0  0  0  0  0  0  0  0
   26.9284    3.6077    0.0000 S   0  0  0  0  0  0  0  0  0  0  0  0
    4.1351   -1.3736    0.0000 O   0  0  0  0  0  0  0  0  0  0  0  0
   24.5624    3.2417    0.0000 O   0  0  0  0  0  0  0  0  0  0  0  0
    6.8718    4.3930    0.0000 O   0  0  0  0  0  0  0  0  0  0  0  0
   28.9630    0.1388    0.0000 O   0  0  0  0  0  0  0  0  0  0  0  0
    3.7690   -0.0075    0.0000 O   0  0  0  0  0  0  0  0  0  0  0  0
    5.5010   -1.0075    0.0000 O   0  0  0  0  0  0  0  0  0  0  0  0
   23.1964    2.8758    0.0000 O   0  0  0  0  0  0  0  0  0  0  0  0
   23.5624    1.5097    0.0000 O   0  0  0  0  0  0  0  0  0  0  0  0
    2.5369    2.8585    0.0000 O   0  0  0  0  0  0  0  0  0  0  0  0
   27.4284    4.4738    0.0000 O   0  0  0  0  0  0  0  0  0  0  0  0
    7.8834    3.4047    0.0000 O   0  0  0  0  0  0  0  0  0  0  0  0
    5.8835    3.3816    0.0000 O   0  0  0  0  0  0  0  0  0  0  0  0
   27.9746   -0.8726    0.0000 O   0  0  0  0  0  0  0  0  0  0  0  0
   27.9515    1.1272    0.0000 O   0  0  0  0  0  0  0  0  0  0  0  0
    2.9030    1.4925    0.0000 O   0  0  0  0  0  0  0  0  0  0  0  0
    3.9030    3.2245    0.0000 O   0  0  0  0  0  0  0  0  0  0  0  0
   26.0624    4.1077    0.0000 O   0  0  0  0  0  0  0  0  0  0  0  0
   27.7945    3.1077    0.0000 O   0  0  0  0  0  0  0  0  0  0  0  0
    8.8948    0.3007    0.0000 O   0  0  0  0  0  0  0  0  0  0  0  0
   23.8738   -1.6046    0.0000 O   0  0  0  0  0  0  0  0  0  0  0  0
   11.3847   -0.5941    0.0000 O   0  0  0  0  0  0  0  0  0  0  0  0
   18.8741   -1.5468    0.0000 O   0  0  0  0  0  0  0  0  0  0  0  0
   16.3643   -2.3839    0.0000 O   0  0  0  0  0  0  0  0  0  0  0  0
    7.3850   -0.5478    0.0000 N   0  0  0  0  0  0  0  0  0  0  0  0
   23.8938    0.1273    0.0000 N   0  0  0  0  0  0  0  0  0  0  0  0
   11.3646   -2.3261    0.0000 N   0  0  0  0  0  0  0  0  0  0  0  0
   20.3640   -2.4301    0.0000 N   0  0  0  0  0  0  0  0  0  0  0  0
   14.8544   -3.2325    0.0000 N   0  0  0  0  0  0  0  0  0  0  0  0
   16.3443   -4.1158    0.0000 N   0  0  0  0  0  0  0  0  0  0  0  0
    6.0010    0.8585    0.0000 C   0  0  0  0  0  0  0  0  0  0  0  0
   25.4284    1.0097    0.0000 C   0  0  0  0  0  0  0  0  0  0  0  0
    6.0010    1.8585    0.0000 C   0  0  0  0  0  0  0  0  0  0  0  0
   26.4284    1.0097    0.0000 C   0  0  0  0  0  0  0  0  0  0  0  0
    5.1350    0.3585    0.0000 C   0  0  0  0  0  0  0  0  0  0  0  0
   24.9284    1.8757    0.0000 C   0  0  0  0  0  0  0  0  0  0  0  0
    6.8950    2.3932    0.0000 C   0  0  0  0  0  0  0  0  0  0  0  0
   26.9631    0.1157    0.0000 C   0  0  0  0  0  0  0  0  0  0  0  0
    6.8950    0.3239    0.0000 C   0  0  0  0  0  0  0  0  0  0  0  0
   24.8938    0.1157    0.0000 C   0  0  0  0  0  0  0  0  0  0  0  0
    5.1350    2.3585    0.0000 C   0  0  0  0  0  0  0  0  0  0  0  0
   26.9284    1.8757    0.0000 C   0  0  0  0  0  0  0  0  0  0  0  0
    4.2690    1.8585    0.0000 C   0  0  0  0  0  0  0  0  0  0  0  0
   26.4284    2.7417    0.0000 C   0  0  0  0  0  0  0  0  0  0  0  0
    4.2690    0.8585    0.0000 C   0  0  0  0  0  0  0  0  0  0  0  0
   25.4284    2.7417    0.0000 C   0  0  0  0  0  0  0  0  0  0  0  0
    7.8010    1.8793    0.0000 C   0  0  0  0  0  0  0  0  0  0  0  0
   26.4493   -0.7903    0.0000 C   0  0  0  0  0  0  0  0  0  0  0  0
    7.8010    0.8377    0.0000 C   0  0  0  0  0  0  0  0  0  0  0  0
   25.4076   -0.7903    0.0000 C   0  0  0  0  0  0  0  0  0  0  0  0
    8.3849   -0.5594    0.0000 C   0  0  0  0  0  0  0  0  0  0  0  0
   23.3839   -0.7329    0.0000 C   0  0  0  0  0  0  0  0  0  0  0  0
    8.8748   -1.4312    0.0000 C   0  0  0  0  0  0  0  0  0  0  0  0
   22.3839   -0.7213    0.0000 C   0  0  0  0  0  0  0  0  0  0  0  0
    9.8748   -1.4428    0.0000 C   0  0  0  0  0  0  0  0  0  0  0  0
   21.8739   -1.5815    0.0000 C   0  0  0  0  0  0  0  0  0  0  0  0
   10.3647   -2.3145    0.0000 C   0  0  0  0  0  0  0  0  0  0  0  0
   20.8740   -1.5700    0.0000 C   0  0  0  0  0  0  0  0  0  0  0  0
    8.3649   -2.2913    0.0000 C   0  0  0  0  0  0  0  0  0  0  0  0
   21.8940    0.1504    0.0000 C   0  0  0  0  0  0  0  0  0  0  0  0
    9.8547   -3.1747    0.0000 C   0  0  0  0  0  0  0  0  0  0  0  0
   20.3841   -0.6982    0.0000 C   0  0  0  0  0  0  0  0  0  0  0  0
    8.8549   -3.1631    0.0000 C   0  0  0  0  0  0  0  0  0  0  0  0
   20.8940    0.1620    0.0000 C   0  0  0  0  0  0  0  0  0  0  0  0
   10.3447   -4.0464    0.0000 C   0  0  0  0  0  0  0  0  0  0  0  0
   19.3841   -0.6866    0.0000 C   0  0  0  0  0  0  0  0  0  0  0  0
   11.8746   -1.4659    0.0000 C   0  0  0  0  0  0  0  0  0  0  0  0
   19.3641   -2.4186    0.0000 C   0  0  0  0  0  0  0  0  0  0  0  0
   12.8745   -1.4774    0.0000 C   0  0  0  0  0  0  0  0  0  0  0  0
   18.8541   -3.2788    0.0000 C   0  0  0  0  0  0  0  0  0  0  0  0
   13.3645   -2.3492    0.0000 C   0  0  0  0  0  0  0  0  0  0  0  0
   17.8542   -3.2672    0.0000 C   0  0  0  0  0  0  0  0  0  0  0  0
   14.3644   -2.3608    0.0000 C   0  0  0  0  0  0  0  0  0  0  0  0
   17.3442   -4.1274    0.0000 C   0  0  0  0  0  0  0  0  0  0  0  0
   13.3845   -0.6173    0.0000 C   0  0  0  0  0  0  0  0  0  0  0  0
   19.3441   -4.1505    0.0000 C   0  0  0  0  0  0  0  0  0  0  0  0
   14.8744   -1.5006    0.0000 C   0  0  0  0  0  0  0  0  0  0  0  0
   17.8342   -4.9991    0.0000 C   0  0  0  0  0  0  0  0  0  0  0  0
   14.3845   -0.6288    0.0000 C   0  0  0  0  0  0  0  0  0  0  0  0
   18.8341   -5.0107    0.0000 C   0  0  0  0  0  0  0  0  0  0  0  0
   15.8543   -3.2441    0.0000 C   0  0  0  0  0  0  0  0  0  0  0  0
  1  7  1  0
  1 11  2  0
  1 12  2  0
  1 40  1  0
  2  8  1  0
  2 13  2  0
  2 14  2  0
  2 41  1  0
  3  9  1  0
  3 17  2  0
  3 18  2  0
  3 42  1  0
  4 10  1  0
  4 19  2  0
  4 20  2  0
  4 43  1  0
  5 15  1  0
  5 21  2  0
  5 22  2  0
  5 48  1  0
  6 16  1  0
  6 23  2  0
  6 24  2  0
  6 49  1  0
 25 56  2  0
 26 57  2  0
 27 72  2  0
 28 73  2  0
 29 86  2  0
 30 44  1  0
 30 56  1  0
 31 45  1  0
 31 57  1  0
 32 62  1  0
 32 72  1  0
 33 63  1  0
 33 73  1  0
 34 78  1  0
 34 86  1  0
 35 79  1  0
 35 86  1  0
 36 38  1  0
 36 40  2  0
 36 44  1  0
 37 39  1  0
 37 41  2  0
 37 45  1  0
 38 42  1  0
 38 46  2  0
 39 43  1  0
 39 47  2  0
 40 50  1  0
 41 51  1  0
 42 52  2  0
 43 53  2  0
 44 54  2  0
 45 55  2  0
 46 48  1  0
 47 49  1  0
 48 50  2  0
 49 51  2  0
 52 54  1  0
 53 55  1  0
 56 58  1  0
 57 59  1  0
 58 60  2  0
 58 64  1  0
 59 61  2  0
 59 65  1  0
 60 62  1  0
 61 63  1  0
 62 66  2  0
 63 67  2  0
 64 68  2  0
 65 69  2  0
 66 68  1  0
 66 70  1  0
 67 69  1  0
 67 71  1  0
 72 74  1  0
 73 75  1  0
 74 76  2  0
 74 80  1  0
 75 77  2  0
 75 81  1  0
 76 78  1  0
 77 79  1  0
 78 82  2  0
 79 83  2  0
 80 84  2  0
 81 85  2  0
 82 84  1  0
 83 85  1  0
M  END
>  <PUBCHEM_COMPOUND_CID>  (1) 
5361

>  <PUBCHEM_COMPOUND_CANONICALIZED>  (1) 
1

>  <PUBCHEM_CACTVS_COMPLEXITY>  (1) 
3020

>  <PUBCHEM_CACTVS_HBOND_ACCEPTOR>  (1) 
23

>  <PUBCHEM_CACTVS_HBOND_DONOR>  (1) 
12

>  <PUBCHEM_CACTVS_ROTATABLE_BOND>  (1) 
16

>  <PUBCHEM_CACTVS_SUBSKEYS>  (1) 
AAADcfB/vgBwAAAAAAAAAAAAAAAAAAAAAAAwYMGDAAAAAADBVAAAHgQQCAAADAiB2AAzwcLAAIKIAiVSUHDCAEAlAgAIiBkAZMiIIDLAlZGEIQxolALIyacciICO0AQAwEAWAACgCAGAgCwAAAAAAAAAAA==

>  <PUBCHEM_IUPAC_OPENEYE_NAME>  (1) 
8-[[4-methyl-3-[[3-[[3-[[2-methyl-5-[(4,6,8-trisulfo-1-naphthyl)carbamoyl]phenyl]carbamoyl]phenyl]carbamoylamino]benzoyl]amino]benzoyl]amino]naphthalene-1,3,5-trisulfonic acid

>  <PUBCHEM_IUPAC_CAS_NAME>  (1) 
8-[[[4-methyl-3-[[[3-[[[3-[[2-methyl-5-[oxo-[(4,6,8-trisulfo-1-naphthalenyl)amino]methyl]anilino]-oxomethyl]anilino]-oxomethyl]amino]phenyl]-oxomethyl]amino]phenyl]-oxomethyl]amino]naphthalene-1,3,5-trisulfonic acid

>  <PUBCHEM_IUPAC_NAME_MARKUP>  (1) 
8-[[4-methyl-3-[[3-[[3-[[2-methyl-5-[(4,6,8-trisulfonaphthalen-1-yl)carbamoyl]phenyl]carbamoyl]phenyl]carbamoylamino]benzoyl]amino]benzoyl]amino]naphthalene-1,3,5-trisulfonic acid

>  <PUBCHEM_IUPAC_NAME>  (1) 
8-[[4-methyl-3-[[3-[[3-[[2-methyl-5-[(4,6,8-trisulfonaphthalen-1-yl)carbamoyl]phenyl]carbamoyl]phenyl]carbamoylamino]benzoyl]amino]benzoyl]amino]naphthalene-1,3,5-trisulfonic acid

>  <PUBCHEM_IUPAC_SYSTEMATIC_NAME>  (1) 
8-[[4-methyl-3-[[3-[[3-[[2-methyl-5-[(4,6,8-trisulfonaphthalen-1-yl)carbamoyl]phenyl]carbamoyl]phenyl]carbamoylamino]phenyl]carbonylamino]phenyl]carbonylamino]naphthalene-1,3,5-trisulfonic acid

>  <PUBCHEM_IUPAC_TRADITIONAL_NAME>  (1) 
8-[[4-methyl-3-[[3-[[3-[[2-methyl-5-[(4,6,8-trisulfo-1-naphthyl)carbamoyl]phenyl]carbamoyl]phenyl]carbamoylamino]benzoyl]amino]benzoyl]amino]naphthalene-1,3,5-trisulfonic acid

>  <PUBCHEM_IUPAC_INCHI>  (1) 
InChI=1S/C51H40N6O23S6/c1-25-9-11-29(49(60)54-37-13-15-41(83(69,70)71)35-21-33(81(63,64)65)23-43(45(35)37)85(75,76)77)19-39(25)56-47(58)27-5-3-7-31(17-27)52-51(62)53-32-8-4-6-28(18-32)48(59)57-40-20-30(12-10-26(40)2)50(61)55-38-14-16-42(84(72,73)74)36-22-34(82(66,67)68)24-44(46(36)38)86(78,79)80/h3-24H,1-2H3,(H,54,60)(H,55,61)(H,56,58)(H,57,59)(H2,52,53,62)(H,63,64,65)(H,66,67,68)(H,69,70,71)(H,72,73,74)(H,75,76,77)(H,78,79,80)

>  <PUBCHEM_IUPAC_INCHIKEY>  (1) 
FIAFUQMPZJWCLV-UHFFFAOYSA-N

>  <PUBCHEM_XLOGP3_AA>  (1) 
1.5

>  <PUBCHEM_EXACT_MASS>  (1) 
1296.0469086

>  <PUBCHEM_MOLECULAR_FORMULA>  (1) 
C51H40N6O23S6

>  <PUBCHEM_MOLECULAR_WEIGHT>  (1) 
1297.3

>  <PUBCHEM_OPENEYE_CAN_SMILES>  (1) 
CC1=C(C=C(C=C1)C(=O)NC2=C3C(=CC(=CC3=C(C=C2)S(=O)(=O)O)S(=O)(=O)O)S(=O)(=O)O)NC(=O)C4=CC(=CC=C4)NC(=O)NC5=CC=CC(=C5)C(=O)NC6=C(C=CC(=C6)C(=O)NC7=C8C(=CC(=CC8=C(C=C7)S(=O)(=O)O)S(=O)(=O)O)S(=O)(=O)O)C

>  <PUBCHEM_OPENEYE_ISO_SMILES>  (1) 
CC1=C(C=C(C=C1)C(=O)NC2=C3C(=CC(=CC3=C(C=C2)S(=O)(=O)O)S(=O)(=O)O)S(=O)(=O)O)NC(=O)C4=CC(=CC=C4)NC(=O)NC5=CC=CC(=C5)C(=O)NC6=C(C=CC(=C6)C(=O)NC7=C8C(=CC(=CC8=C(C=C7)S(=O)(=O)O)S(=O)(=O)O)S(=O)(=O)O)C

>  <PUBCHEM_CACTVS_TPSA>  (1) 
534

>  <PUBCHEM_MONOISOTOPIC_WEIGHT>  (1) 
1296.0469086

>  <PUBCHEM_TOTAL_CHARGE>  (1) 
0

>  <PUBCHEM_HEAVY_ATOM_COUNT>  (1) 
86

>  <PUBCHEM_ATOM_DEF_STEREO_COUNT>  (1) 
0

>  <PUBCHEM_ATOM_UDEF_STEREO_COUNT>  (1) 
0

>  <PUBCHEM_BOND_DEF_STEREO_COUNT>  (1) 
0

>  <PUBCHEM_BOND_UDEF_STEREO_COUNT>  (1) 
0

>  <PUBCHEM_ISOTOPIC_ATOM_COUNT>  (1) 
0

>  <PUBCHEM_COMPONENT_COUNT>  (1) 
1

>  <PUBCHEM_CACTVS_TAUTO_COUNT>  (1) 
-1

>  <PUBCHEM_COORDINATE_TYPE>  (1) 
1
5
255

>  <PUBCHEM_BONDANNOTATIONS>  (1) 
36  38  8
36  40  8
36  44  8
37  39  8
37  41  8
37  45  8
38  42  8
38  46  8
39  43  8
39  47  8
40  50  8
41  51  8
42  52  8
43  53  8
44  54  8
45  55  8
46  48  8
47  49  8
48  50  8
49  51  8
52  54  8
53  55  8
58  60  8
58  64  8
59  61  8
59  65  8
60  62  8
61  63  8
62  66  8
63  67  8
64  68  8
65  69  8
66  68  8
67  69  8
74  76  8
74  80  8
75  77  8
75  81  8
76  78  8
77  79  8
78  82  8
79  83  8
80  84  8
81  85  8
82  84  8
83  85  8

$$$$
