5574924
     RDKit          2D

 18 21  0  0  1  0  0  0  0  0999 V2000
    5.6161   -1.9609    0.0000 O   0  0  0  0  0  0  0  0  0  0  0  0
    2.7364    0.3634    0.0000 O   0  0  0  0  0  0  0  0  0  0  0  0
    2.0000    1.9799    0.0000 O   0  0  0  0  0  0  0  0  0  0  0  0
    4.7896   -1.3971    0.0000 C   0  0  0  0  0  0  0  0  0  0  0  0
    5.6906   -0.9633    0.0000 C   0  0  0  0  0  0  0  0  0  0  0  0
    3.8887   -0.9633    0.0000 C   0  0  0  0  0  0  0  0  0  0  0  0
    4.6536   -2.3819    0.0000 C   0  0  0  0  0  0  0  0  0  0  0  0
    5.9131    0.0117    0.0000 C   0  0  0  0  0  0  0  0  0  0  0  0
    3.6662    0.0117    0.0000 C   0  0  0  0  0  0  0  0  0  0  0  0
    4.2896    0.7935    0.0000 C   0  0  0  0  0  0  0  0  0  0  0  0
    5.2896    0.7935    0.0000 C   0  0  0  0  0  0  0  0  0  0  0  0
    3.2036   -1.6836    0.0000 C   0  0  0  0  0  0  0  0  0  0  0  0
    6.5916   -0.5294    0.0000 C   0  0  0  0  0  0  0  0  0  0  0  0
    3.6754   -2.5585    0.0000 C   0  0  0  0  0  0  0  0  0  0  0  0
    3.7399    1.6217    0.0000 C   0  0  0  0  0  0  0  0  0  0  0  0
    2.2124   -1.5510    0.0000 C   0  0  0  0  0  0  0  0  0  0  0  0
    2.7818    1.3564    0.0000 C   0  0  0  0  0  0  0  0  0  0  0  0
    4.0896    2.5585    0.0000 C   0  0  0  0  0  0  0  0  0  0  0  0
  4  1  1  0
  1  5  1  0
  9  2  1  1
  2 17  1  0
  3 17  2  0
  4  5  1  0
  4  6  1  0
  4  7  1  1
  5  8  1  0
  5 13  1  1
  6  9  1  0
  6 12  1  6
  7 14  1  0
  8 11  1  0
  9 10  1  0
 10 11  1  6
 10 15  1  0
 12 14  2  0
 12 16  1  0
 15 17  1  0
 15 18  2  0
M  END
>  <PUBCHEM_COMPOUND_CID>  (1) 
5574924

>  <PUBCHEM_COMPOUND_CANONICALIZED>  (1) 
1

>  <PUBCHEM_CACTVS_COMPLEXITY>  (1) 
506

>  <PUBCHEM_CACTVS_HBOND_ACCEPTOR>  (1) 
3

>  <PUBCHEM_CACTVS_HBOND_DONOR>  (1) 
0

>  <PUBCHEM_CACTVS_ROTATABLE_BOND>  (1) 
0

>  <PUBCHEM_CACTVS_SUBSKEYS>  (1) 
AAADceBwMAAAAAAAAAAAAAAAEgAAASIAAAAAAAAABgASAACQAAAAGgAAAAAADVSggAICCAAABACIAiDSCAAAAAAgAAAACAEAAEgABBIAIQACAAAFwAAIIIPK6PyOgAAAAAAAAAAAAAAAAAAAAAAAAAAAAA==

>  <PUBCHEM_IUPAC_OPENEYE_NAME>  (1) 
(1R,3S,6S,10S,11R)-3,12-dimethyl-7-methylene-2,9-dioxatetracyclo[9.3.0.01,3.06,10]tetradec-12-en-8-one

>  <PUBCHEM_IUPAC_CAS_NAME>  (1) 
(1R,3S,6S,10S,11R)-3,12-dimethyl-7-methylene-2,9-dioxatetracyclo[9.3.0.01,3.06,10]tetradec-12-en-8-one

>  <PUBCHEM_IUPAC_NAME_MARKUP>  (1) 
(1<I>R</I>,3<I>S</I>,6<I>S</I>,10<I>S</I>,11<I>R</I>)-3,12-dimethyl-7-methylidene-2,9-dioxatetracyclo[9.3.0.0<SUP>1,3</SUP>.0<SUP>6,10</SUP>]tetradec-12-en-8-one

>  <PUBCHEM_IUPAC_NAME>  (1) 
(1R,3S,6S,10S,11R)-3,12-dimethyl-7-methylidene-2,9-dioxatetracyclo[9.3.0.01,3.06,10]tetradec-12-en-8-one

>  <PUBCHEM_IUPAC_SYSTEMATIC_NAME>  (1) 
(1R,3S,6S,10S,11R)-3,12-dimethyl-7-methylidene-2,9-dioxatetracyclo[9.3.0.01,3.06,10]tetradec-12-en-8-one

>  <PUBCHEM_IUPAC_TRADITIONAL_NAME>  (1) 
(1R,3S,6S,10S,11R)-3,12-dimethyl-7-methylene-2,9-dioxatetracyclo[9.3.0.01,3.06,10]tetradec-12-en-8-one

>  <PUBCHEM_IUPAC_INCHI>  (1) 
InChI=1S/C15H18O3/c1-8-4-7-15-11(8)12-10(9(2)13(16)17-12)5-6-14(15,3)18-15/h4,10-12H,2,5-7H2,1,3H3/t10-,11+,12-,14-,15+/m0/s1

>  <PUBCHEM_IUPAC_INCHIKEY>  (1) 
UVJYAKBJSGRTHA-CUZKYEQNSA-N

>  <PUBCHEM_XLOGP3_AA>  (1) 
1.7

>  <PUBCHEM_EXACT_MASS>  (1) 
246.125594432

>  <PUBCHEM_MOLECULAR_FORMULA>  (1) 
C15H18O3

>  <PUBCHEM_MOLECULAR_WEIGHT>  (1) 
246.30

>  <PUBCHEM_OPENEYE_CAN_SMILES>  (1) 
CC1=CCC23C1C4C(CCC2(O3)C)C(=C)C(=O)O4

>  <PUBCHEM_OPENEYE_ISO_SMILES>  (1) 
CC1=CC[C@@]23[C@H]1[C@@H]4[C@@H](CC[C@@]2(O3)C)C(=C)C(=O)O4

>  <PUBCHEM_CACTVS_TPSA>  (1) 
38.8

>  <PUBCHEM_MONOISOTOPIC_WEIGHT>  (1) 
246.125594432

>  <PUBCHEM_TOTAL_CHARGE>  (1) 
0

>  <PUBCHEM_HEAVY_ATOM_COUNT>  (1) 
18

>  <PUBCHEM_ATOM_DEF_STEREO_COUNT>  (1) 
5

>  <PUBCHEM_ATOM_UDEF_STEREO_COUNT>  (1) 
0

>  <PUBCHEM_BOND_DEF_STEREO_COUNT>  (1) 
0

>  <PUBCHEM_BOND_UDEF_STEREO_COUNT>  (1) 
0

>  <PUBCHEM_ISOTOPIC_ATOM_COUNT>  (1) 
0

>  <PUBCHEM_COMPONENT_COUNT>  (1) 
1

>  <PUBCHEM_CACTVS_TAUTO_COUNT>  (1) 
-1

>  <PUBCHEM_COORDINATE_TYPE>  (1) 
1
5
255

>  <PUBCHEM_BONDANNOTATIONS>  (1) 
4  1  6
10  25  5
5  13  5
6  19  5
9  24  6

$$$$
