56666829
     RDKit          2D

 30 31  0  0  0  0  0  0  0  0999 V2000
    8.9282    4.9050    0.0000 O   0  0  0  0  0  0  0  0  0  0  0  0
    8.0622    6.4050    0.0000 O   0  0  0  0  0  0  0  0  0  0  0  0
    3.7320    0.9050    0.0000 O   0  0  0  0  0  0  0  0  0  0  0  0
    7.1962    0.9050    0.0000 O   0  0  0  0  0  0  0  0  0  0  0  0
    2.8660   -0.5950    0.0000 O   0  0  0  0  0  0  0  0  0  0  0  0
    2.8660   -6.5950    0.0000 O   0  0  0  0  0  0  0  0  0  0  0  0
    7.1962    3.9050    0.0000 C   0  0  0  0  0  0  0  0  0  0  0  0
    7.1962    4.9050    0.0000 C   0  0  0  0  0  0  0  0  0  0  0  0
    6.3301    3.4050    0.0000 C   0  0  0  0  0  0  0  0  0  0  0  0
    8.0622    5.4050    0.0000 C   0  0  0  0  0  0  0  0  0  0  0  0
    5.4641    1.9050    0.0000 C   0  0  0  0  0  0  0  0  0  0  0  0
    6.3301    2.4050    0.0000 C   0  0  0  0  0  0  0  0  0  0  0  0
    5.4641    0.9050    0.0000 C   0  0  0  0  0  0  0  0  0  0  0  0
    5.4641    3.9050    0.0000 C   0  0  0  0  0  0  0  0  0  0  0  0
    4.5981    0.4050    0.0000 C   0  0  0  0  0  0  0  0  0  0  0  0
    6.3301    0.4050    0.0000 C   0  0  0  0  0  0  0  0  0  0  0  0
    4.5981   -0.5950    0.0000 C   0  0  0  0  0  0  0  0  0  0  0  0
    6.3301   -0.5950    0.0000 C   0  0  0  0  0  0  0  0  0  0  0  0
    5.4641   -1.0950    0.0000 C   0  0  0  0  0  0  0  0  0  0  0  0
    3.7320   -1.0950    0.0000 C   0  0  0  0  0  0  0  0  0  0  0  0
    9.7942    5.4050    0.0000 C   0  0  0  0  0  0  0  0  0  0  0  0
    8.9282    6.9050    0.0000 C   0  0  0  0  0  0  0  0  0  0  0  0
    3.7320   -2.0950    0.0000 C   0  0  0  0  0  0  0  0  0  0  0  0
    2.8660   -2.5950    0.0000 C   0  0  0  0  0  0  0  0  0  0  0  0
    2.8660   -3.5950    0.0000 C   0  0  0  0  0  0  0  0  0  0  0  0
    3.7320   -4.0950    0.0000 C   0  0  0  0  0  0  0  0  0  0  0  0
    2.0000   -4.0950    0.0000 C   0  0  0  0  0  0  0  0  0  0  0  0
    3.7320   -5.0950    0.0000 C   0  0  0  0  0  0  0  0  0  0  0  0
    2.0000   -5.0950    0.0000 C   0  0  0  0  0  0  0  0  0  0  0  0
    2.8660   -5.5950    0.0000 C   0  0  0  0  0  0  0  0  0  0  0  0
  1 10  1  0
  1 21  1  0
  2 10  1  0
  2 22  1  0
  3 15  1  0
  4 16  1  0
  5 20  2  0
  6 30  1  0
  7  8  1  0
  7  9  1  0
  8 10  1  0
  9 12  2  0
  9 14  1  0
 11 12  1  0
 11 13  1  0
 13 15  2  0
 13 16  1  0
 15 17  1  0
 16 18  2  0
 17 19  2  0
 17 20  1  0
 18 19  1  0
 20 23  1  0
 23 24  2  0
 24 25  1  0
 25 26  2  0
 25 27  1  0
 26 28  1  0
 27 29  2  0
 28 30  2  0
 29 30  1  0
M  END
>  <PUBCHEM_COMPOUND_CID>  (1) 
56666829

>  <PUBCHEM_COMPOUND_CANONICALIZED>  (1) 
1

>  <PUBCHEM_CACTVS_COMPLEXITY>  (1) 
574

>  <PUBCHEM_CACTVS_HBOND_ACCEPTOR>  (1) 
6

>  <PUBCHEM_CACTVS_HBOND_DONOR>  (1) 
3

>  <PUBCHEM_CACTVS_ROTATABLE_BOND>  (1) 
10

>  <PUBCHEM_CACTVS_SUBSKEYS>  (1) 
AAADceB4OAAAAAAAAAAAAAAAAAAAAAAAAAAwYAAAAAAAAAABQAAAGgAACAAADASwmAMyDoAABgCIAqBSAAACAAAkIAAIiAEGCMgYJzaCFRKgcUAl4BUImYeI7OTOIAACCAAIAABAAAQQABAAAAAAAAAAAA==

>  <PUBCHEM_IUPAC_OPENEYE_NAME>  (1) 
(E)-1-[3-[(E)-6,6-dimethoxy-3-methyl-hex-2-enyl]-2,4-dihydroxy-phenyl]-3-(4-hydroxyphenyl)prop-2-en-1-one

>  <PUBCHEM_IUPAC_CAS_NAME>  (1) 
(E)-1-[3-[(E)-6,6-dimethoxy-3-methylhex-2-enyl]-2,4-dihydroxyphenyl]-3-(4-hydroxyphenyl)-2-propen-1-one

>  <PUBCHEM_IUPAC_NAME_MARKUP>  (1) 
(<I>E</I>)-1-[3-[(<I>E</I>)-6,6-dimethoxy-3-methylhex-2-enyl]-2,4-dihydroxyphenyl]-3-(4-hydroxyphenyl)prop-2-en-1-one

>  <PUBCHEM_IUPAC_NAME>  (1) 
(E)-1-[3-[(E)-6,6-dimethoxy-3-methylhex-2-enyl]-2,4-dihydroxyphenyl]-3-(4-hydroxyphenyl)prop-2-en-1-one

>  <PUBCHEM_IUPAC_SYSTEMATIC_NAME>  (1) 
(E)-1-[3-[(E)-6,6-dimethoxy-3-methyl-hex-2-enyl]-2,4-bis(oxidanyl)phenyl]-3-(4-hydroxyphenyl)prop-2-en-1-one

>  <PUBCHEM_IUPAC_TRADITIONAL_NAME>  (1) 
(E)-1-[3-[(E)-6,6-dimethoxy-3-methyl-hex-2-enyl]-2,4-dihydroxy-phenyl]-3-(4-hydroxyphenyl)prop-2-en-1-one

>  <PUBCHEM_IUPAC_INCHI>  (1) 
InChI=1S/C24H28O6/c1-16(5-15-23(29-2)30-3)4-11-19-22(27)14-12-20(24(19)28)21(26)13-8-17-6-9-18(25)10-7-17/h4,6-10,12-14,23,25,27-28H,5,11,15H2,1-3H3/b13-8+,16-4+

>  <PUBCHEM_IUPAC_INCHIKEY>  (1) 
ADTPLEJVNULKHA-BJRVJWNUSA-N

>  <PUBCHEM_XLOGP3_AA>  (1) 
5.2

>  <PUBCHEM_EXACT_MASS>  (1) 
412.18858861

>  <PUBCHEM_MOLECULAR_FORMULA>  (1) 
C24H28O6

>  <PUBCHEM_MOLECULAR_WEIGHT>  (1) 
412.5

>  <PUBCHEM_OPENEYE_CAN_SMILES>  (1) 
CC(=CCC1=C(C=CC(=C1O)C(=O)C=CC2=CC=C(C=C2)O)O)CCC(OC)OC

>  <PUBCHEM_OPENEYE_ISO_SMILES>  (1) 
C/C(=C\CC1=C(C=CC(=C1O)C(=O)/C=C/C2=CC=C(C=C2)O)O)/CCC(OC)OC

>  <PUBCHEM_CACTVS_TPSA>  (1) 
96.2

>  <PUBCHEM_MONOISOTOPIC_WEIGHT>  (1) 
412.18858861

>  <PUBCHEM_TOTAL_CHARGE>  (1) 
0

>  <PUBCHEM_HEAVY_ATOM_COUNT>  (1) 
30

>  <PUBCHEM_ATOM_DEF_STEREO_COUNT>  (1) 
0

>  <PUBCHEM_ATOM_UDEF_STEREO_COUNT>  (1) 
0

>  <PUBCHEM_BOND_DEF_STEREO_COUNT>  (1) 
2

>  <PUBCHEM_BOND_UDEF_STEREO_COUNT>  (1) 
0

>  <PUBCHEM_ISOTOPIC_ATOM_COUNT>  (1) 
0

>  <PUBCHEM_COMPONENT_COUNT>  (1) 
1

>  <PUBCHEM_CACTVS_TAUTO_COUNT>  (1) 
-1

>  <PUBCHEM_COORDINATE_TYPE>  (1) 
1
5
255

>  <PUBCHEM_BONDANNOTATIONS>  (1) 
13  15  8
13  16  8
15  17  8
16  18  8
17  19  8
18  19  8
25  26  8
25  27  8
26  28  8
27  29  8
28  30  8
29  30  8

$$$$
