5464454
     RDKit          2D

 41 46  0  0  1  0  0  0  0  0999 V2000
    6.0427   -1.4495    0.0000 O   0  0  0  0  0  0  0  0  0  0  0  0
    6.9367    1.0158    0.0000 O   0  0  0  0  0  0  0  0  0  0  0  0
    3.4446    0.0505    0.0000 O   0  0  0  0  0  0  0  0  0  0  0  0
    3.4446    1.0505    0.0000 O   0  0  0  0  0  0  0  0  0  0  0  0
    2.5405   -1.4464    0.0000 O   0  0  0  0  0  0  0  0  0  0  0  0
    5.1767    4.0504    0.0000 O   0  0  0  0  0  0  0  0  0  0  0  0
    4.2986   -4.5188    0.0000 O   0  0  0  0  0  0  0  0  0  0  0  0
    6.9251    4.0850    0.0000 O   0  0  0  0  0  0  0  0  0  0  0  0
    9.5068   -2.4496    0.0000 O   0  0  0  0  0  0  0  0  0  0  0  0
    9.5863    4.5229    0.0000 O   0  0  0  0  0  0  0  0  0  0  0  0
   11.3145    3.5163    0.0000 O   0  0  0  0  0  0  0  0  0  0  0  0
    5.1767    0.0505    0.0000 C   0  0  0  0  0  0  0  0  0  0  0  0
    6.0427   -0.4495    0.0000 C   0  0  0  0  0  0  0  0  0  0  0  0
    5.1767    1.0505    0.0000 C   0  0  0  0  0  0  0  0  0  0  0  0
    4.3107   -0.4495    0.0000 C   0  0  0  0  0  0  0  0  0  0  0  0
    6.9088   -0.9495    0.0000 C   0  0  0  0  0  0  0  0  0  0  0  0
    4.3107   -1.4495    0.0000 C   0  0  0  0  0  0  0  0  0  0  0  0
    6.0427    1.5505    0.0000 C   0  0  0  0  0  0  0  0  0  0  0  0
    5.1767   -1.9496    0.0000 C   0  0  0  0  0  0  0  0  0  0  0  0
    4.3107    1.5505    0.0000 C   0  0  0  0  0  0  0  0  0  0  0  0
    6.0427    2.5504    0.0000 C   0  0  0  0  0  0  0  0  0  0  0  0
    3.4007   -1.9564    0.0000 C   0  0  0  0  0  0  0  0  0  0  0  0
    7.7748   -0.4495    0.0000 C   0  0  0  0  0  0  0  0  0  0  0  0
    6.9088   -1.9496    0.0000 C   0  0  0  0  0  0  0  0  0  0  0  0
    4.3107    2.5504    0.0000 C   0  0  0  0  0  0  0  0  0  0  0  0
    5.1767    3.0504    0.0000 C   0  0  0  0  0  0  0  0  0  0  0  0
    5.1928   -2.9910    0.0000 C   0  0  0  0  0  0  0  0  0  0  0  0
    6.9367    3.0851    0.0000 C   0  0  0  0  0  0  0  0  0  0  0  0
    3.3926   -2.9980    0.0000 C   0  0  0  0  0  0  0  0  0  0  0  0
    4.2947   -3.5188    0.0000 C   0  0  0  0  0  0  0  0  0  0  0  0
    7.8427    1.5296    0.0000 C   0  0  0  0  0  0  0  0  0  0  0  0
    8.6408   -0.9495    0.0000 C   0  0  0  0  0  0  0  0  0  0  0  0
    7.7748   -2.4496    0.0000 C   0  0  0  0  0  0  0  0  0  0  0  0
    7.8427    2.5713    0.0000 C   0  0  0  0  0  0  0  0  0  0  0  0
    8.6408   -1.9496    0.0000 C   0  0  0  0  0  0  0  0  0  0  0  0
    8.7107    2.0263    0.0000 C   0  0  0  0  0  0  0  0  0  0  0  0
    8.7145    3.0263    0.0000 C   0  0  0  0  0  0  0  0  0  0  0  0
    9.5748    1.5230    0.0000 C   0  0  0  0  0  0  0  0  0  0  0  0
    9.5825    3.5230    0.0000 C   0  0  0  0  0  0  0  0  0  0  0  0
   10.4427    2.0196    0.0000 C   0  0  0  0  0  0  0  0  0  0  0  0
   10.4466    3.0196    0.0000 C   0  0  0  0  0  0  0  0  0  0  0  0
  1 13  1  0
  1 19  1  0
  2 18  1  0
  2 31  1  0
  3 15  2  0
  4 20  1  0
  5 22  1  0
  6 26  1  0
  7 30  1  0
  8 28  2  0
  9 35  1  0
 10 39  1  0
 11 41  1  0
 12 13  1  0
 12 14  1  6
 12 15  1  0
 13 16  1  1
 14 18  2  0
 14 20  1  0
 15 17  1  0
 16 23  2  0
 16 24  1  0
 17 19  2  0
 17 22  1  0
 18 21  1  0
 19 27  1  0
 20 25  2  0
 21 26  2  0
 21 28  1  0
 22 29  2  0
 23 32  1  0
 24 33  2  0
 25 26  1  0
 27 30  2  0
 28 34  1  0
 29 30  1  0
 31 34  2  0
 31 36  1  0
 32 35  2  0
 33 35  1  0
 36 37  2  0
 36 38  1  0
 37 39  1  0
 38 40  2  0
 39 41  2  0
 40 41  1  0
M  END
>  <PUBCHEM_COMPOUND_CID>  (1) 
5464454

>  <PUBCHEM_COMPOUND_CANONICALIZED>  (1) 
1

>  <PUBCHEM_CACTVS_COMPLEXITY>  (1) 
1020

>  <PUBCHEM_CACTVS_HBOND_ACCEPTOR>  (1) 
11

>  <PUBCHEM_CACTVS_HBOND_DONOR>  (1) 
7

>  <PUBCHEM_CACTVS_ROTATABLE_BOND>  (1) 
3

>  <PUBCHEM_CACTVS_SUBSKEYS>  (1) 
AAADceB4PAAAAAAAAAAAAAAAAAAAAAAAAAA0YMGCAAAAAACRVAAAGgAACAAADRSgmAIwBoAABgCIAqBSAAACCAAkIAAIiAEGiMgNJzaGNRqCeWGl4BUJuQfK7PzOoAADCAAIQABAAAYQABCAAAAAAAAAAA==

>  <PUBCHEM_IUPAC_OPENEYE_NAME>  (1) 
8-[(2S,3R)-5,7-dihydroxy-2-(4-hydroxyphenyl)-4-oxo-chroman-3-yl]-2-(3,4-dihydroxyphenyl)-5,7-dihydroxy-chromen-4-one

>  <PUBCHEM_IUPAC_CAS_NAME>  (1) 
8-[(2S,3R)-5,7-dihydroxy-2-(4-hydroxyphenyl)-4-oxo-3,4-dihydro-2H-1-benzopyran-3-yl]-2-(3,4-dihydroxyphenyl)-5,7-dihydroxy-1-benzopyran-4-one

>  <PUBCHEM_IUPAC_NAME_MARKUP>  (1) 
8-[(2<I>S</I>,3<I>R</I>)-5,7-dihydroxy-2-(4-hydroxyphenyl)-4-oxo-2,3-dihydrochromen-3-yl]-2-(3,4-dihydroxyphenyl)-5,7-dihydroxychromen-4-one

>  <PUBCHEM_IUPAC_NAME>  (1) 
8-[(2S,3R)-5,7-dihydroxy-2-(4-hydroxyphenyl)-4-oxo-2,3-dihydrochromen-3-yl]-2-(3,4-dihydroxyphenyl)-5,7-dihydroxychromen-4-one

>  <PUBCHEM_IUPAC_SYSTEMATIC_NAME>  (1) 
2-[3,4-bis(oxidanyl)phenyl]-8-[(2S,3R)-2-(4-hydroxyphenyl)-5,7-bis(oxidanyl)-4-oxidanylidene-2,3-dihydrochromen-3-yl]-5,7-bis(oxidanyl)chromen-4-one

>  <PUBCHEM_IUPAC_TRADITIONAL_NAME>  (1) 
8-[(2S,3R)-5,7-dihydroxy-2-(4-hydroxyphenyl)-4-keto-chroman-3-yl]-2-(3,4-dihydroxyphenyl)-5,7-dihydroxy-chromone

>  <PUBCHEM_IUPAC_INCHI>  (1) 
InChI=1S/C30H20O11/c31-14-4-1-12(2-5-14)29-27(28(39)25-18(35)8-15(32)9-23(25)41-29)26-20(37)10-19(36)24-21(38)11-22(40-30(24)26)13-3-6-16(33)17(34)7-13/h1-11,27,29,31-37H/t27-,29+/m0/s1

>  <PUBCHEM_IUPAC_INCHIKEY>  (1) 
GFWPWSNIXRDQJC-LMSSTIIKSA-N

>  <PUBCHEM_XLOGP3_AA>  (1) 
4.5

>  <PUBCHEM_EXACT_MASS>  (1) 
556.10056145

>  <PUBCHEM_MOLECULAR_FORMULA>  (1) 
C30H20O11

>  <PUBCHEM_MOLECULAR_WEIGHT>  (1) 
556.5

>  <PUBCHEM_OPENEYE_CAN_SMILES>  (1) 
C1=CC(=CC=C1C2C(C(=O)C3=C(C=C(C=C3O2)O)O)C4=C(C=C(C5=C4OC(=CC5=O)C6=CC(=C(C=C6)O)O)O)O)O

>  <PUBCHEM_OPENEYE_ISO_SMILES>  (1) 
C1=CC(=CC=C1[C@@H]2[C@H](C(=O)C3=C(C=C(C=C3O2)O)O)C4=C(C=C(C5=C4OC(=CC5=O)C6=CC(=C(C=C6)O)O)O)O)O

>  <PUBCHEM_CACTVS_TPSA>  (1) 
194

>  <PUBCHEM_MONOISOTOPIC_WEIGHT>  (1) 
556.10056145

>  <PUBCHEM_TOTAL_CHARGE>  (1) 
0

>  <PUBCHEM_HEAVY_ATOM_COUNT>  (1) 
41

>  <PUBCHEM_ATOM_DEF_STEREO_COUNT>  (1) 
2

>  <PUBCHEM_ATOM_UDEF_STEREO_COUNT>  (1) 
0

>  <PUBCHEM_BOND_DEF_STEREO_COUNT>  (1) 
0

>  <PUBCHEM_BOND_UDEF_STEREO_COUNT>  (1) 
0

>  <PUBCHEM_ISOTOPIC_ATOM_COUNT>  (1) 
0

>  <PUBCHEM_COMPONENT_COUNT>  (1) 
1

>  <PUBCHEM_CACTVS_TAUTO_COUNT>  (1) 
-1

>  <PUBCHEM_COORDINATE_TYPE>  (1) 
1
5
255

>  <PUBCHEM_BONDANNOTATIONS>  (1) 
12  42  5
13  16  5
14  18  8
14  20  8
16  23  8
16  24  8
17  19  8
17  22  8
18  21  8
19  27  8
2  18  8
2  31  8
20  25  8
21  26  8
21  28  8
22  29  8
23  32  8
24  33  8
25  26  8
27  30  8
28  34  8
29  30  8
31  34  8
32  35  8
33  35  8
36  37  8
36  38  8
37  39  8
38  40  8
39  41  8
40  41  8

$$$$
