42607536
     RDKit          2D

 31 32  0  0  1  0  0  0  0  0999 V2000
    8.9282    4.9050    0.0000 O   0  0  0  0  0  0  0  0  0  0  0  0
    7.1962    0.9050    0.0000 O   0  0  0  0  0  0  0  0  0  0  0  0
    3.7320    0.9050    0.0000 O   0  0  0  0  0  0  0  0  0  0  0  0
    2.8660   -0.5950    0.0000 O   0  0  0  0  0  0  0  0  0  0  0  0
    2.8660   -6.5950    0.0000 O   0  0  0  0  0  0  0  0  0  0  0  0
    7.1962    4.9050    0.0000 C   0  0  0  0  0  0  0  0  0  0  0  0
    7.1962    3.9050    0.0000 C   0  0  0  0  0  0  0  0  0  0  0  0
    8.0622    5.4050    0.0000 C   0  0  0  0  0  0  0  0  0  0  0  0
    6.3301    3.4050    0.0000 C   0  0  0  0  0  0  0  0  0  0  0  0
    5.4641    1.9050    0.0000 C   0  0  0  0  0  0  0  0  0  0  0  0
    6.3301    2.4050    0.0000 C   0  0  0  0  0  0  0  0  0  0  0  0
    5.4641    0.9050    0.0000 C   0  0  0  0  0  0  0  0  0  0  0  0
    8.0622    6.4050    0.0000 C   0  0  0  0  0  0  0  0  0  0  0  0
    5.4641    3.9050    0.0000 C   0  0  0  0  0  0  0  0  0  0  0  0
    4.5981    0.4050    0.0000 C   0  0  0  0  0  0  0  0  0  0  0  0
    6.3301    0.4050    0.0000 C   0  0  0  0  0  0  0  0  0  0  0  0
    4.5981   -0.5950    0.0000 C   0  0  0  0  0  0  0  0  0  0  0  0
    8.9282    6.9050    0.0000 C   0  0  0  0  0  0  0  0  0  0  0  0
    6.3301   -0.5950    0.0000 C   0  0  0  0  0  0  0  0  0  0  0  0
    5.4641   -1.0950    0.0000 C   0  0  0  0  0  0  0  0  0  0  0  0
    7.1962    6.9050    0.0000 C   0  0  0  0  0  0  0  0  0  0  0  0
    3.7320   -1.0950    0.0000 C   0  0  0  0  0  0  0  0  0  0  0  0
    3.7320   -2.0950    0.0000 C   0  0  0  0  0  0  0  0  0  0  0  0
    8.0622    0.4050    0.0000 C   0  0  0  0  0  0  0  0  0  0  0  0
    2.8660   -2.5950    0.0000 C   0  0  0  0  0  0  0  0  0  0  0  0
    2.8660   -3.5950    0.0000 C   0  0  0  0  0  0  0  0  0  0  0  0
    2.0000   -4.0950    0.0000 C   0  0  0  0  0  0  0  0  0  0  0  0
    3.7320   -4.0950    0.0000 C   0  0  0  0  0  0  0  0  0  0  0  0
    2.0000   -5.0950    0.0000 C   0  0  0  0  0  0  0  0  0  0  0  0
    3.7320   -5.0950    0.0000 C   0  0  0  0  0  0  0  0  0  0  0  0
    2.8660   -5.5950    0.0000 C   0  0  0  0  0  0  0  0  0  0  0  0
  1  8  1  0
  2 16  1  0
  2 24  1  0
  3 15  1  0
  4 22  2  0
  5 31  1  0
  6  7  1  0
  6  8  1  0
  7  9  1  0
  8 13  1  0
  9 11  2  0
  9 14  1  0
 10 11  1  0
 10 12  1  0
 12 15  2  0
 12 16  1  0
 13 18  1  0
 13 21  2  0
 15 17  1  0
 16 19  2  0
 17 20  2  0
 17 22  1  0
 19 20  1  0
 22 23  1  0
 23 25  2  0
 25 26  1  0
 26 27  2  0
 26 28  1  0
 27 29  1  0
 28 30  2  0
 29 31  2  0
 30 31  1  0
M  END
>  <PUBCHEM_COMPOUND_CID>  (1) 
42607536

>  <PUBCHEM_COMPOUND_CANONICALIZED>  (1) 
1

>  <PUBCHEM_CACTVS_COMPLEXITY>  (1) 
644

>  <PUBCHEM_CACTVS_HBOND_ACCEPTOR>  (1) 
5

>  <PUBCHEM_CACTVS_HBOND_DONOR>  (1) 
3

>  <PUBCHEM_CACTVS_ROTATABLE_BOND>  (1) 
10

>  <PUBCHEM_CACTVS_SUBSKEYS>  (1) 
AAADceB4OAAAAAAAAAAAAAAAAAAAAAAAAAAwYAAAAAAAAAABQAAAGgAACAAADBSgmAIyBoAABgCIAqBSAAACCAAkIAAIiAEGCMgMNzaGNRqAcWAl4BUIuYeI7OzOIAACCAAIAABAAAQQABAAAAAAAAAAAA==

>  <PUBCHEM_IUPAC_OPENEYE_NAME>  (1) 
(E)-1-[2-hydroxy-3-[(2E)-6-hydroxy-3,7-dimethyl-octa-2,7-dienyl]-4-methoxy-phenyl]-3-(4-hydroxyphenyl)prop-2-en-1-one

>  <PUBCHEM_IUPAC_CAS_NAME>  (1) 
(E)-1-[2-hydroxy-3-[(2E)-6-hydroxy-3,7-dimethylocta-2,7-dienyl]-4-methoxyphenyl]-3-(4-hydroxyphenyl)-2-propen-1-one

>  <PUBCHEM_IUPAC_NAME_MARKUP>  (1) 
(<I>E</I>)-1-[2-hydroxy-3-[(2<I>E</I>)-6-hydroxy-3,7-dimethylocta-2,7-dienyl]-4-methoxyphenyl]-3-(4-hydroxyphenyl)prop-2-en-1-one

>  <PUBCHEM_IUPAC_NAME>  (1) 
(E)-1-[2-hydroxy-3-[(2E)-6-hydroxy-3,7-dimethylocta-2,7-dienyl]-4-methoxyphenyl]-3-(4-hydroxyphenyl)prop-2-en-1-one

>  <PUBCHEM_IUPAC_SYSTEMATIC_NAME>  (1) 
(E)-1-[3-[(2E)-3,7-dimethyl-6-oxidanyl-octa-2,7-dienyl]-4-methoxy-2-oxidanyl-phenyl]-3-(4-hydroxyphenyl)prop-2-en-1-one

>  <PUBCHEM_IUPAC_TRADITIONAL_NAME>  (1) 
(E)-1-[2-hydroxy-3-[(2E)-6-hydroxy-3,7-dimethyl-octa-2,7-dienyl]-4-methoxy-phenyl]-3-(4-hydroxyphenyl)prop-2-en-1-one

>  <PUBCHEM_IUPAC_INCHI>  (1) 
InChI=1S/C26H30O5/c1-17(2)23(28)14-6-18(3)5-12-22-25(31-4)16-13-21(26(22)30)24(29)15-9-19-7-10-20(27)11-8-19/h5,7-11,13,15-16,23,27-28,30H,1,6,12,14H2,2-4H3/b15-9+,18-5+

>  <PUBCHEM_IUPAC_INCHIKEY>  (1) 
NYGYGFOLOACYGB-NKUGMWFWSA-N

>  <PUBCHEM_XLOGP3_AA>  (1) 
6.3

>  <PUBCHEM_EXACT_MASS>  (1) 
422.20932405

>  <PUBCHEM_MOLECULAR_FORMULA>  (1) 
C26H30O5

>  <PUBCHEM_MOLECULAR_WEIGHT>  (1) 
422.5

>  <PUBCHEM_REFERENCE_STANDARDIZATION>  (1) 
Bypass - this structure was created from CID 42607536

>  <PUBCHEM_OPENEYE_CAN_SMILES>  (1) 
CC(=C)C(CCC(=CCC1=C(C=CC(=C1O)C(=O)C=CC2=CC=C(C=C2)O)OC)C)O

>  <PUBCHEM_OPENEYE_ISO_SMILES>  (1) 
CC(=C)C(CC/C(=C/CC1=C(C=CC(=C1O)C(=O)/C=C/C2=CC=C(C=C2)O)OC)/C)O

>  <PUBCHEM_CACTVS_TPSA>  (1) 
87

>  <PUBCHEM_MONOISOTOPIC_WEIGHT>  (1) 
422.20932405

>  <PUBCHEM_TOTAL_CHARGE>  (1) 
0

>  <PUBCHEM_HEAVY_ATOM_COUNT>  (1) 
31

>  <PUBCHEM_ATOM_DEF_STEREO_COUNT>  (1) 
0

>  <PUBCHEM_ATOM_UDEF_STEREO_COUNT>  (1) 
1

>  <PUBCHEM_BOND_DEF_STEREO_COUNT>  (1) 
2

>  <PUBCHEM_BOND_UDEF_STEREO_COUNT>  (1) 
0

>  <PUBCHEM_ISOTOPIC_ATOM_COUNT>  (1) 
0

>  <PUBCHEM_COMPONENT_COUNT>  (1) 
1

>  <PUBCHEM_CACTVS_TAUTO_COUNT>  (1) 
-1

>  <PUBCHEM_COORDINATE_TYPE>  (1) 
1
5
255

>  <PUBCHEM_BONDANNOTATIONS>  (1) 
8  1  3
12  15  8
12  16  8
15  17  8
16  19  8
17  20  8
19  20  8
26  27  8
26  28  8
27  29  8
28  30  8
29  31  8
30  31  8

$$$$
