479503
     RDKit          2D

 21 22  0  0  1  0  0  0  0  0999 V2000
    5.4641   -2.0000    0.0000 O   0  0  0  0  0  0  0  0  0  0  0  0
    7.1962   -2.0000    0.0000 O   0  0  0  0  0  0  0  0  0  0  0  0
    8.9446   -2.0346    0.0000 O   0  0  0  0  0  0  0  0  0  0  0  0
    7.1962    2.0000    0.0000 O   0  0  0  0  0  0  0  0  0  0  0  0
    8.9446    2.0346    0.0000 O   0  0  0  0  0  0  0  0  0  0  0  0
    5.4641   -1.0000    0.0000 C   0  0  0  0  0  0  0  0  0  0  0  0
    6.3301   -0.5000    0.0000 C   0  0  0  0  0  0  0  0  0  0  0  0
    4.5981   -0.5000    0.0000 C   0  0  0  0  0  0  0  0  0  0  0  0
    8.0622   -0.5000    0.0000 C   0  0  0  0  0  0  0  0  0  0  0  0
    7.1962   -1.0000    0.0000 C   0  0  0  0  0  0  0  0  0  0  0  0
    8.0622    0.5000    0.0000 C   0  0  0  0  0  0  0  0  0  0  0  0
    6.3301    0.5000    0.0000 C   0  0  0  0  0  0  0  0  0  0  0  0
    7.1962    1.0000    0.0000 C   0  0  0  0  0  0  0  0  0  0  0  0
    3.7320   -1.0000    0.0000 C   0  0  0  0  0  0  0  0  0  0  0  0
    8.9561   -1.0347    0.0000 C   0  0  0  0  0  0  0  0  0  0  0  0
    8.9561    1.0347    0.0000 C   0  0  0  0  0  0  0  0  0  0  0  0
    2.8660   -0.5000    0.0000 C   0  0  0  0  0  0  0  0  0  0  0  0
    9.8622   -0.5208    0.0000 C   0  0  0  0  0  0  0  0  0  0  0  0
    9.8622    0.5208    0.0000 C   0  0  0  0  0  0  0  0  0  0  0  0
    2.0000   -1.0000    0.0000 C   0  0  0  0  0  0  0  0  0  0  0  0
    2.8660    0.5000    0.0000 C   0  0  0  0  0  0  0  0  0  0  0  0
  6  1  1  6
  2 10  2  0
  3 15  1  0
  4 13  2  0
  5 16  1  0
  6  7  1  0
  6  8  1  0
  7 10  1  0
  7 12  2  0
  8 14  1  0
  9 10  1  0
  9 11  2  0
  9 15  1  0
 11 13  1  0
 11 16  1  0
 12 13  1  0
 14 17  2  0
 15 18  2  0
 16 19  2  0
 17 20  1  0
 17 21  1  0
 18 19  1  0
M  END
>  <PUBCHEM_COMPOUND_CID>  (1) 
479503

>  <PUBCHEM_COMPOUND_CANONICALIZED>  (1) 
1

>  <PUBCHEM_CACTVS_COMPLEXITY>  (1) 
501

>  <PUBCHEM_CACTVS_HBOND_ACCEPTOR>  (1) 
5

>  <PUBCHEM_CACTVS_HBOND_DONOR>  (1) 
3

>  <PUBCHEM_CACTVS_ROTATABLE_BOND>  (1) 
3

>  <PUBCHEM_CACTVS_SUBSKEYS>  (1) 
AAADceB4OAAAAAAAAAAAAAAAAAAAAAAAAAAwQAAAAAAAAACBAAAAGgAACAAADBSgmAIyBoAAAgCIAqBSAAACAAAkIAAIiAEGCMgINjaCFRKAcUAk4BEImYfL6PSOgQABAAAYAAACAAIAADAAAAAAAAAAAA==

>  <PUBCHEM_IUPAC_OPENEYE_NAME>  (1) 
5,8-dihydroxy-2-[(1R)-1-hydroxy-4-methyl-pent-3-enyl]naphthalene-1,4-dione

>  <PUBCHEM_IUPAC_CAS_NAME>  (1) 
5,8-dihydroxy-2-[(1R)-1-hydroxy-4-methylpent-3-enyl]naphthalene-1,4-dione

>  <PUBCHEM_IUPAC_NAME_MARKUP>  (1) 
5,8-dihydroxy-2-[(1<I>R</I>)-1-hydroxy-4-methylpent-3-enyl]naphthalene-1,4-dione

>  <PUBCHEM_IUPAC_NAME>  (1) 
5,8-dihydroxy-2-[(1R)-1-hydroxy-4-methylpent-3-enyl]naphthalene-1,4-dione

>  <PUBCHEM_IUPAC_SYSTEMATIC_NAME>  (1) 
2-[(1R)-4-methyl-1-oxidanyl-pent-3-enyl]-5,8-bis(oxidanyl)naphthalene-1,4-dione

>  <PUBCHEM_IUPAC_TRADITIONAL_NAME>  (1) 
5,8-dihydroxy-2-[(1R)-1-hydroxy-4-methyl-pent-3-enyl]-1,4-naphthoquinone

>  <PUBCHEM_IUPAC_INCHI>  (1) 
InChI=1S/C16H16O5/c1-8(2)3-4-10(17)9-7-13(20)14-11(18)5-6-12(19)15(14)16(9)21/h3,5-7,10,17-19H,4H2,1-2H3/t10-/m1/s1

>  <PUBCHEM_IUPAC_INCHIKEY>  (1) 
NEZONWMXZKDMKF-SNVBAGLBSA-N

>  <PUBCHEM_XLOGP3_AA>  (1) 
3

>  <PUBCHEM_EXACT_MASS>  (1) 
288.09977361

>  <PUBCHEM_MOLECULAR_FORMULA>  (1) 
C16H16O5

>  <PUBCHEM_MOLECULAR_WEIGHT>  (1) 
288.29

>  <PUBCHEM_OPENEYE_CAN_SMILES>  (1) 
CC(=CCC(C1=CC(=O)C2=C(C=CC(=C2C1=O)O)O)O)C

>  <PUBCHEM_OPENEYE_ISO_SMILES>  (1) 
CC(=CC[C@H](C1=CC(=O)C2=C(C=CC(=C2C1=O)O)O)O)C

>  <PUBCHEM_CACTVS_TPSA>  (1) 
94.8

>  <PUBCHEM_MONOISOTOPIC_WEIGHT>  (1) 
288.09977361

>  <PUBCHEM_TOTAL_CHARGE>  (1) 
0

>  <PUBCHEM_HEAVY_ATOM_COUNT>  (1) 
21

>  <PUBCHEM_ATOM_DEF_STEREO_COUNT>  (1) 
1

>  <PUBCHEM_ATOM_UDEF_STEREO_COUNT>  (1) 
0

>  <PUBCHEM_BOND_DEF_STEREO_COUNT>  (1) 
0

>  <PUBCHEM_BOND_UDEF_STEREO_COUNT>  (1) 
0

>  <PUBCHEM_ISOTOPIC_ATOM_COUNT>  (1) 
0

>  <PUBCHEM_COMPONENT_COUNT>  (1) 
1

>  <PUBCHEM_CACTVS_TAUTO_COUNT>  (1) 
-1

>  <PUBCHEM_COORDINATE_TYPE>  (1) 
1
5
255

>  <PUBCHEM_BONDANNOTATIONS>  (1) 
6  1  6
11  16  8
15  18  8
16  19  8
18  19  8
9  11  8
9  15  8

$$$$
