65482
     RDKit          2D

 27 29  0  0  1  0  0  0  0  0999 V2000
    5.9405    0.5359    0.0000 O   0  0  0  0  0  0  0  0  0  0  0  0
    4.6844    2.7982    0.0000 O   0  0  0  0  0  0  0  0  0  0  0  0
    3.4026    1.0403    0.0000 O   0  0  0  0  0  0  0  0  0  0  0  0
   11.9209    2.6565    0.0000 O   0  0  0  0  0  0  0  0  0  0  0  0
   11.2137    1.0754    0.0000 O   0  0  0  0  0  0  0  0  0  0  0  0
    4.6783   -0.7220    0.0000 N   0  0  0  0  0  0  0  0  0  0  0  0
    7.7679    0.7193    0.0000 N   0  0  0  0  0  0  0  0  0  0  0  0
    4.6783   -2.3314    0.0000 N   0  0  0  0  0  0  0  0  0  0  0  0
    2.8660   -0.5267    0.0000 N   0  0  0  0  0  0  0  0  0  0  0  0
   10.0952    3.4731    0.0000 N   0  0  0  0  0  0  0  0  0  0  0  0
    2.0000   -2.0267    0.0000 N   0  0  0  0  0  0  0  0  0  0  0  0
    2.8660   -3.5267    0.0000 N   0  0  0  0  0  0  0  0  0  0  0  0
    5.9422    1.5359    0.0000 C   0  0  0  0  0  0  0  0  0  0  0  0
    4.9917    1.8466    0.0000 C   0  0  0  0  0  0  0  0  0  0  0  0
    4.4026    1.0386    0.0000 C   0  0  0  0  0  0  0  0  0  0  0  0
    4.9889    0.2286    0.0000 C   0  0  0  0  0  0  0  0  0  0  0  0
    6.7523    2.1223    0.0000 C   0  0  0  0  0  0  0  0  0  0  0  0
    7.6651    1.7140    0.0000 C   0  0  0  0  0  0  0  0  0  0  0  0
    8.4752    2.3004    0.0000 C   0  0  0  0  0  0  0  0  0  0  0  0
    9.3880    1.8921    0.0000 C   0  0  0  0  0  0  0  0  0  0  0  0
    3.7320   -1.0267    0.0000 C   0  0  0  0  0  0  0  0  0  0  0  0
    5.2619   -1.5267    0.0000 C   0  0  0  0  0  0  0  0  0  0  0  0
   10.1980    2.4784    0.0000 C   0  0  0  0  0  0  0  0  0  0  0  0
    3.7320   -2.0267    0.0000 C   0  0  0  0  0  0  0  0  0  0  0  0
    2.8660   -2.5267    0.0000 C   0  0  0  0  0  0  0  0  0  0  0  0
   11.1109    2.0701    0.0000 C   0  0  0  0  0  0  0  0  0  0  0  0
    2.0000   -1.0267    0.0000 C   0  0  0  0  0  0  0  0  0  0  0  0
  1 13  1  0
  1 16  1  0
 14  2  1  6
 15  3  1  6
  4 26  1  0
  5 26  2  0
 16  6  1  1
  6 21  1  0
  6 22  1  0
 18  7  1  6
  8 22  2  0
  8 24  1  0
  9 21  1  0
  9 27  2  0
 23 10  1  6
 11 25  2  0
 11 27  1  0
 12 25  1  0
 13 14  1  0
 13 17  1  1
 14 15  1  0
 15 16  1  0
 17 18  1  0
 18 19  1  0
 19 20  1  0
 20 23  1  0
 21 24  2  0
 23 26  1  0
 24 25  1  0
M  END
>  <PUBCHEM_COMPOUND_CID>  (1) 
65482

>  <PUBCHEM_COMPOUND_CANONICALIZED>  (1) 
1

>  <PUBCHEM_CACTVS_COMPLEXITY>  (1) 
529

>  <PUBCHEM_CACTVS_HBOND_ACCEPTOR>  (1) 
11

>  <PUBCHEM_CACTVS_HBOND_DONOR>  (1) 
6

>  <PUBCHEM_CACTVS_ROTATABLE_BOND>  (1) 
7

>  <PUBCHEM_CACTVS_SUBSKEYS>  (1) 
AAADceBzuAAAAAAAAAAAAAAAAAAAAWJAAAAsAAAAAAAAAFgB+AAAHgAQCAAACDzhlwYF+L9MFgCoAQbxbACAgC0REKABUKGoVBCDWBJAyEAeRAgPEALTACG42aGQAAAAAAAAAAAAAAAAAAAAAAAAAAAAAA==

>  <PUBCHEM_IUPAC_OPENEYE_NAME>  (1) 
(2S,5S)-2,5-diamino-6-[(2R,3S,4R,5R)-5-(6-aminopurin-9-yl)-3,4-dihydroxy-tetrahydrofuran-2-yl]hexanoic acid

>  <PUBCHEM_IUPAC_CAS_NAME>  (1) 
(2S,5S)-2,5-diamino-6-[(2R,3S,4R,5R)-5-(6-aminopurin-9-yl)-3,4-dihydroxy-2-oxolanyl]hexanoic acid

>  <PUBCHEM_IUPAC_NAME_MARKUP>  (1) 
(2<I>S</I>,5<I>S</I>)-2,5-diamino-6-[(2<I>R</I>,3<I>S</I>,4<I>R</I>,5<I>R</I>)-5-(6-aminopurin-9-yl)-3,4-dihydroxyoxolan-2-yl]hexanoic acid

>  <PUBCHEM_IUPAC_NAME>  (1) 
(2S,5S)-2,5-diamino-6-[(2R,3S,4R,5R)-5-(6-aminopurin-9-yl)-3,4-dihydroxyoxolan-2-yl]hexanoic acid

>  <PUBCHEM_IUPAC_SYSTEMATIC_NAME>  (1) 
(2S,5S)-6-[(2R,3S,4R,5R)-5-(6-aminopurin-9-yl)-3,4-bis(oxidanyl)oxolan-2-yl]-2,5-bis(azanyl)hexanoic acid

>  <PUBCHEM_IUPAC_TRADITIONAL_NAME>  (1) 
(2S,5S)-6-[(2R,3S,4R,5R)-5-adenin-9-yl-3,4-dihydroxy-tetrahydrofuran-2-yl]-2,5-diamino-hexanoic acid

>  <PUBCHEM_IUPAC_INCHI>  (1) 
InChI=1S/C15H23N7O5/c16-6(1-2-7(17)15(25)26)3-8-10(23)11(24)14(27-8)22-5-21-9-12(18)19-4-20-13(9)22/h4-8,10-11,14,23-24H,1-3,16-17H2,(H,25,26)(H2,18,19,20)/t6-,7-,8+,10+,11+,14+/m0/s1

>  <PUBCHEM_IUPAC_INCHIKEY>  (1) 
LMXOHSDXUQEUSF-YECHIGJVSA-N

>  <PUBCHEM_XLOGP3>  (1) 
-4.3

>  <PUBCHEM_EXACT_MASS>  (1) 
381.17606686

>  <PUBCHEM_MOLECULAR_FORMULA>  (1) 
C15H23N7O5

>  <PUBCHEM_MOLECULAR_WEIGHT>  (1) 
381.39

>  <PUBCHEM_OPENEYE_CAN_SMILES>  (1) 
C1=NC(=C2C(=N1)N(C=N2)C3C(C(C(O3)CC(CCC(C(=O)O)N)N)O)O)N

>  <PUBCHEM_OPENEYE_ISO_SMILES>  (1) 
C1=NC(=C2C(=N1)N(C=N2)[C@H]3[C@@H]([C@@H]([C@H](O3)C[C@H](CC[C@@H](C(=O)O)N)N)O)O)N

>  <PUBCHEM_CACTVS_TPSA>  (1) 
209

>  <PUBCHEM_MONOISOTOPIC_WEIGHT>  (1) 
381.17606686

>  <PUBCHEM_TOTAL_CHARGE>  (1) 
0

>  <PUBCHEM_HEAVY_ATOM_COUNT>  (1) 
27

>  <PUBCHEM_ATOM_DEF_STEREO_COUNT>  (1) 
6

>  <PUBCHEM_ATOM_UDEF_STEREO_COUNT>  (1) 
0

>  <PUBCHEM_BOND_DEF_STEREO_COUNT>  (1) 
0

>  <PUBCHEM_BOND_UDEF_STEREO_COUNT>  (1) 
0

>  <PUBCHEM_ISOTOPIC_ATOM_COUNT>  (1) 
0

>  <PUBCHEM_COMPONENT_COUNT>  (1) 
1

>  <PUBCHEM_CACTVS_TAUTO_COUNT>  (1) 
-1

>  <PUBCHEM_COORDINATE_TYPE>  (1) 
1
5
255

>  <PUBCHEM_BONDANNOTATIONS>  (1) 
23  10  6
11  25  8
11  27  8
13  17  5
14  2  6
21  24  8
24  25  8
15  3  6
16  6  5
6  21  8
6  22  8
18  7  6
8  22  8
8  24  8
9  21  8
9  27  8

$$$$
