5282102
     RDKit          2D

 32 35  0  0  1  0  0  0  0  0999 V2000
    5.1350   -1.2857    0.0000 O   0  0  0  0  0  0  0  0  0  0  0  0
    6.8671   -1.2857    0.0000 O   0  0  0  0  0  0  0  0  0  0  0  0
    5.1350   -4.2857    0.0000 O   0  0  0  0  0  0  0  0  0  0  0  0
    3.4030   -3.2857    0.0000 O   0  0  0  0  0  0  0  0  0  0  0  0
    6.8671   -3.2857    0.0000 O   0  0  0  0  0  0  0  0  0  0  0  0
    2.5369   -1.7857    0.0000 O   0  0  0  0  0  0  0  0  0  0  0  0
    7.7331    1.2143    0.0000 O   0  0  0  0  0  0  0  0  0  0  0  0
    5.1350   -0.2857    0.0000 O   0  0  0  0  0  0  0  0  0  0  0  0
    4.2308    1.2112    0.0000 O   0  0  0  0  0  0  0  0  0  0  0  0
    5.9889    4.2836    0.0000 O   0  0  0  0  0  0  0  0  0  0  0  0
   11.1972   -1.7857    0.0000 O   0  0  0  0  0  0  0  0  0  0  0  0
    5.1350   -3.2857    0.0000 C   0  0  0  0  0  0  0  0  0  0  0  0
    4.2690   -2.7857    0.0000 C   0  0  0  0  0  0  0  0  0  0  0  0
    6.0010   -2.7857    0.0000 C   0  0  0  0  0  0  0  0  0  0  0  0
    4.2690   -1.7857    0.0000 C   0  0  0  0  0  0  0  0  0  0  0  0
    6.0010   -1.7857    0.0000 C   0  0  0  0  0  0  0  0  0  0  0  0
    3.4030   -1.2857    0.0000 C   0  0  0  0  0  0  0  0  0  0  0  0
    6.8671   -0.2857    0.0000 C   0  0  0  0  0  0  0  0  0  0  0  0
    7.7331    0.2143    0.0000 C   0  0  0  0  0  0  0  0  0  0  0  0
    6.0010    0.2143    0.0000 C   0  0  0  0  0  0  0  0  0  0  0  0
    6.0010    1.2143    0.0000 C   0  0  0  0  0  0  0  0  0  0  0  0
    6.8671    1.7143    0.0000 C   0  0  0  0  0  0  0  0  0  0  0  0
    8.5991   -0.2857    0.0000 C   0  0  0  0  0  0  0  0  0  0  0  0
    5.0910    1.7212    0.0000 C   0  0  0  0  0  0  0  0  0  0  0  0
    6.8831    2.7558    0.0000 C   0  0  0  0  0  0  0  0  0  0  0  0
    8.5991   -1.2857    0.0000 C   0  0  0  0  0  0  0  0  0  0  0  0
    9.4651    0.2143    0.0000 C   0  0  0  0  0  0  0  0  0  0  0  0
    5.0830    2.7628    0.0000 C   0  0  0  0  0  0  0  0  0  0  0  0
    5.9851    3.2836    0.0000 C   0  0  0  0  0  0  0  0  0  0  0  0
    9.4651   -1.7857    0.0000 C   0  0  0  0  0  0  0  0  0  0  0  0
   10.3312   -0.2857    0.0000 C   0  0  0  0  0  0  0  0  0  0  0  0
   10.3312   -1.2857    0.0000 C   0  0  0  0  0  0  0  0  0  0  0  0
  1 15  1  0
  1 16  1  0
 16  2  1  1
  2 18  1  0
 12  3  1  1
 13  4  1  6
 14  5  1  6
  6 17  1  0
  7 19  1  0
  7 22  1  0
  8 20  2  0
  9 24  1  0
 10 29  1  0
 11 32  1  0
 12 13  1  0
 12 14  1  0
 13 15  1  0
 14 16  1  0
 15 17  1  1
 18 19  2  0
 18 20  1  0
 19 23  1  0
 20 21  1  0
 21 22  2  0
 21 24  1  0
 22 25  1  0
 23 26  2  0
 23 27  1  0
 24 28  2  0
 25 29  2  0
 26 30  1  0
 27 31  2  0
 28 29  1  0
 30 32  2  0
 31 32  1  0
M  END
>  <PUBCHEM_COMPOUND_CID>  (1) 
5282102

>  <PUBCHEM_COMPOUND_CANONICALIZED>  (1) 
1

>  <PUBCHEM_CACTVS_COMPLEXITY>  (1) 
719

>  <PUBCHEM_CACTVS_HBOND_ACCEPTOR>  (1) 
11

>  <PUBCHEM_CACTVS_HBOND_DONOR>  (1) 
7

>  <PUBCHEM_CACTVS_ROTATABLE_BOND>  (1) 
4

>  <PUBCHEM_CACTVS_SUBSKEYS>  (1) 
AAADceB4PAAAAAAAAAAAAAAAAAAAAAAAAAA0YIEAAAAAAACBQAAAGgAACAAADBSwmAMwDoAABgCIAqBSAAICCAAkIAAIiAFGCMgdNzaGNR6ieWCl4BUPuQfI7KzOIAAACAAIAABAAAAQABAAAAAAAAAAAA==

>  <PUBCHEM_IUPAC_OPENEYE_NAME>  (1) 
5,7-dihydroxy-2-(4-hydroxyphenyl)-3-[(2S,3R,4S,5S,6R)-3,4,5-trihydroxy-6-(hydroxymethyl)tetrahydropyran-2-yl]oxy-chromen-4-one

>  <PUBCHEM_IUPAC_CAS_NAME>  (1) 
5,7-dihydroxy-2-(4-hydroxyphenyl)-3-[[(2S,3R,4S,5S,6R)-3,4,5-trihydroxy-6-(hydroxymethyl)-2-oxanyl]oxy]-1-benzopyran-4-one

>  <PUBCHEM_IUPAC_NAME_MARKUP>  (1) 
5,7-dihydroxy-2-(4-hydroxyphenyl)-3-[(2<I>S</I>,3<I>R</I>,4<I>S</I>,5<I>S</I>,6<I>R</I>)-3,4,5-trihydroxy-6-(hydroxymethyl)oxan-2-yl]oxychromen-4-one

>  <PUBCHEM_IUPAC_NAME>  (1) 
5,7-dihydroxy-2-(4-hydroxyphenyl)-3-[(2S,3R,4S,5S,6R)-3,4,5-trihydroxy-6-(hydroxymethyl)oxan-2-yl]oxychromen-4-one

>  <PUBCHEM_IUPAC_SYSTEMATIC_NAME>  (1) 
3-[(2S,3R,4S,5S,6R)-6-(hydroxymethyl)-3,4,5-tris(oxidanyl)oxan-2-yl]oxy-2-(4-hydroxyphenyl)-5,7-bis(oxidanyl)chromen-4-one

>  <PUBCHEM_IUPAC_TRADITIONAL_NAME>  (1) 
5,7-dihydroxy-2-(4-hydroxyphenyl)-3-[(2S,3R,4S,5S,6R)-3,4,5-trihydroxy-6-methylol-tetrahydropyran-2-yl]oxy-chromone

>  <PUBCHEM_IUPAC_INCHI>  (1) 
InChI=1S/C21H20O11/c22-7-13-15(26)17(28)18(29)21(31-13)32-20-16(27)14-11(25)5-10(24)6-12(14)30-19(20)8-1-3-9(23)4-2-8/h1-6,13,15,17-18,21-26,28-29H,7H2/t13-,15-,17+,18-,21+/m1/s1

>  <PUBCHEM_IUPAC_INCHIKEY>  (1) 
JPUKWEQWGBDDQB-QSOFNFLRSA-N

>  <PUBCHEM_XLOGP3_AA>  (1) 
0.7

>  <PUBCHEM_EXACT_MASS>  (1) 
448.10056145

>  <PUBCHEM_MOLECULAR_FORMULA>  (1) 
C21H20O11

>  <PUBCHEM_MOLECULAR_WEIGHT>  (1) 
448.4

>  <PUBCHEM_OPENEYE_CAN_SMILES>  (1) 
C1=CC(=CC=C1C2=C(C(=O)C3=C(C=C(C=C3O2)O)O)OC4C(C(C(C(O4)CO)O)O)O)O

>  <PUBCHEM_OPENEYE_ISO_SMILES>  (1) 
C1=CC(=CC=C1C2=C(C(=O)C3=C(C=C(C=C3O2)O)O)O[C@H]4[C@@H]([C@H]([C@@H]([C@H](O4)CO)O)O)O)O

>  <PUBCHEM_CACTVS_TPSA>  (1) 
186

>  <PUBCHEM_MONOISOTOPIC_WEIGHT>  (1) 
448.10056145

>  <PUBCHEM_TOTAL_CHARGE>  (1) 
0

>  <PUBCHEM_HEAVY_ATOM_COUNT>  (1) 
32

>  <PUBCHEM_ATOM_DEF_STEREO_COUNT>  (1) 
5

>  <PUBCHEM_ATOM_UDEF_STEREO_COUNT>  (1) 
0

>  <PUBCHEM_BOND_DEF_STEREO_COUNT>  (1) 
0

>  <PUBCHEM_BOND_UDEF_STEREO_COUNT>  (1) 
0

>  <PUBCHEM_ISOTOPIC_ATOM_COUNT>  (1) 
0

>  <PUBCHEM_COMPONENT_COUNT>  (1) 
1

>  <PUBCHEM_CACTVS_TAUTO_COUNT>  (1) 
-1

>  <PUBCHEM_COORDINATE_TYPE>  (1) 
1
5
255

>  <PUBCHEM_BONDANNOTATIONS>  (1) 
15  17  5
18  19  8
18  20  8
16  2  5
20  21  8
21  22  8
21  24  8
22  25  8
23  26  8
23  27  8
24  28  8
25  29  8
26  30  8
27  31  8
28  29  8
12  3  5
30  32  8
31  32  8
13  4  6
14  5  6
7  19  8
7  22  8

$$$$
