10114
     RDKit          2D

 34 38  0  0  1  0  0  0  0  0999 V2000
    2.5357   -3.0234    0.0000 O   0  0  0  0  0  0  0  0  0  0  0  0
    5.3307    0.5289    0.0000 O   0  0  0  0  0  0  0  0  0  0  0  0
   11.2187    3.0886    0.0000 O   0  0  0  0  0  0  0  0  0  0  0  0
    9.7088    3.9372    0.0000 O   0  0  0  0  0  0  0  0  0  0  0  0
    7.0628   -1.4710    0.0000 C   0  0  0  0  0  0  0  0  0  0  0  0
    5.2868   -1.4779    0.0000 C   0  0  0  0  0  0  0  0  0  0  0  0
    6.1968   -0.9711    0.0000 C   0  0  0  0  0  0  0  0  0  0  0  0
    7.9288   -0.9711    0.0000 C   0  0  0  0  0  0  0  0  0  0  0  0
    5.2787   -2.5195    0.0000 C   0  0  0  0  0  0  0  0  0  0  0  0
    7.0789   -2.5126    0.0000 C   0  0  0  0  0  0  0  0  0  0  0  0
    7.9288    0.0289    0.0000 C   0  0  0  0  0  0  0  0  0  0  0  0
    6.1808   -3.0403    0.0000 C   0  0  0  0  0  0  0  0  0  0  0  0
    4.3433   -3.0692    0.0000 C   0  0  0  0  0  0  0  0  0  0  0  0
    8.8228    0.5636    0.0000 C   0  0  0  0  0  0  0  0  0  0  0  0
    9.7288    0.0498    0.0000 C   0  0  0  0  0  0  0  0  0  0  0  0
    8.8228   -1.5057    0.0000 C   0  0  0  0  0  0  0  0  0  0  0  0
    4.3599   -0.9138    0.0000 C   0  0  0  0  0  0  0  0  0  0  0  0
    9.7288   -0.9919    0.0000 C   0  0  0  0  0  0  0  0  0  0  0  0
    6.1968    0.0289    0.0000 C   0  0  0  0  0  0  0  0  0  0  0  0
    7.7056   -2.2371    0.0000 C   0  0  0  0  0  0  0  0  0  0  0  0
    3.4037   -2.5267    0.0000 C   0  0  0  0  0  0  0  0  0  0  0  0
    5.2945   -0.4779    0.0000 C   0  0  0  0  0  0  0  0  0  0  0  0
    3.4120   -1.4418    0.0000 C   0  0  0  0  0  0  0  0  0  0  0  0
    8.2709   -1.9107    0.0000 C   0  0  0  0  0  0  0  0  0  0  0  0
    8.7977    1.6483    0.0000 C   0  0  0  0  0  0  0  0  0  0  0  0
    7.0628    0.5289    0.0000 C   0  0  0  0  0  0  0  0  0  0  0  0
   10.6726    0.5850    0.0000 C   0  0  0  0  0  0  0  0  0  0  0  0
    9.7288    2.2052    0.0000 C   0  0  0  0  0  0  0  0  0  0  0  0
   10.6726    1.6700    0.0000 C   0  0  0  0  0  0  0  0  0  0  0  0
    3.8467   -3.9372    0.0000 C   0  0  0  0  0  0  0  0  0  0  0  0
    4.8466   -3.9333    0.0000 C   0  0  0  0  0  0  0  0  0  0  0  0
   10.5987   -0.4435    0.0000 C   0  0  0  0  0  0  0  0  0  0  0  0
    9.2188    3.0654    0.0000 C   0  0  0  0  0  0  0  0  0  0  0  0
   10.2188    3.0770    0.0000 C   0  0  0  0  0  0  0  0  0  0  0  0
 21  1  1  1
  2 19  2  0
  3 34  1  0
  4 34  2  0
  5  7  1  0
  5  8  1  0
  5 10  1  0
  5 20  1  1
  6  7  1  0
  6  9  1  0
  6 17  1  0
  6 22  1  1
  7 19  1  1
  8 11  1  0
  8 16  1  0
  8 24  1  6
  9 12  1  1
  9 13  1  0
 10 12  1  0
 11 14  1  0
 11 26  2  0
 13 21  1  0
 13 30  1  0
 13 31  1  0
 14 15  1  0
 14 25  1  6
 15 18  1  0
 15 27  1  0
 15 32  1  1
 16 18  1  0
 17 23  1  0
 19 26  1  0
 21 23  1  0
 25 28  1  0
 27 29  1  0
 28 29  1  0
 28 33  1  6
 28 34  1  0
M  END
>  <PUBCHEM_COMPOUND_CID>  (1) 
10114

>  <PUBCHEM_COMPOUND_CANONICALIZED>  (1) 
1

>  <PUBCHEM_CACTVS_COMPLEXITY>  (1) 
965

>  <PUBCHEM_CACTVS_HBOND_ACCEPTOR>  (1) 
4

>  <PUBCHEM_CACTVS_HBOND_DONOR>  (1) 
2

>  <PUBCHEM_CACTVS_ROTATABLE_BOND>  (1) 
1

>  <PUBCHEM_CACTVS_SUBSKEYS>  (1) 
AAADcfB4OAAAAAAAAAAAAAAAAAAAAAAAAAAwYMGCAAAAAADAAAAAGgAACAAADxSggAICCAAAAgCIAqDSCAAAAAAgAAAACAEAAEgAEBIAAQAAQAAEgAAIAQOIyPCPgAAAAAAAAADAAAYAADAAAAAAAAAAAA==

>  <PUBCHEM_IUPAC_OPENEYE_NAME>  (1) 
(2S,4aS,6aR,6aS,6bR,8aR,10S,12aS,14bR)-10-hydroxy-2,4a,6a,6b,9,9,12a-heptamethyl-13-oxo-3,4,5,6,6a,7,8,8a,10,11,12,14b-dodecahydro-1H-picene-2-carboxylic acid

>  <PUBCHEM_IUPAC_CAS_NAME>  (1) 
(2S,4aS,6aR,6aS,6bR,8aR,10S,12aS,14bR)-10-hydroxy-2,4a,6a,6b,9,9,12a-heptamethyl-13-oxo-3,4,5,6,6a,7,8,8a,10,11,12,14b-dodecahydro-1H-picene-2-carboxylic acid

>  <PUBCHEM_IUPAC_NAME_MARKUP>  (1) 
(2<I>S</I>,4<I>a</I><I>S</I>,6<I>a</I><I>R</I>,6<I>a</I><I>S</I>,6<I>b</I><I>R</I>,8<I>a</I><I>R</I>,10<I>S</I>,12<I>a</I><I>S</I>,14<I>b</I><I>R</I>)-10-hydroxy-2,4<I>a</I>,6<I>a</I>,6<I>b</I>,9,9,12<I>a</I>-heptamethyl-13-oxo-3,4,5,6,6<I>a</I>,7,8,8<I>a</I>,10,11,12,14<I>b</I>-dodecahydro-1<I>H</I>-picene-2-carboxylic acid

>  <PUBCHEM_IUPAC_NAME>  (1) 
(2S,4aS,6aR,6aS,6bR,8aR,10S,12aS,14bR)-10-hydroxy-2,4a,6a,6b,9,9,12a-heptamethyl-13-oxo-3,4,5,6,6a,7,8,8a,10,11,12,14b-dodecahydro-1H-picene-2-carboxylic acid

>  <PUBCHEM_IUPAC_SYSTEMATIC_NAME>  (1) 
(2S,4aS,6aR,6aS,6bR,8aR,10S,12aS,14bR)-2,4a,6a,6b,9,9,12a-heptamethyl-10-oxidanyl-13-oxidanylidene-3,4,5,6,6a,7,8,8a,10,11,12,14b-dodecahydro-1H-picene-2-carboxylic acid

>  <PUBCHEM_IUPAC_TRADITIONAL_NAME>  (1) 
(2S,4aS,6aR,6aS,6bR,8aR,10S,12aS,14bR)-10-hydroxy-13-keto-2,4a,6a,6b,9,9,12a-heptamethyl-3,4,5,6,6a,7,8,8a,10,11,12,14b-dodecahydro-1H-picene-2-carboxylic acid

>  <PUBCHEM_IUPAC_INCHI>  (1) 
InChI=1S/C30H46O4/c1-25(2)21-8-11-30(7)23(28(21,5)10-9-22(25)32)20(31)16-18-19-17-27(4,24(33)34)13-12-26(19,3)14-15-29(18,30)6/h16,19,21-23,32H,8-15,17H2,1-7H3,(H,33,34)/t19-,21-,22-,23+,26+,27-,28-,29+,30+/m0/s1

>  <PUBCHEM_IUPAC_INCHIKEY>  (1) 
MPDGHEJMBKOTSU-YKLVYJNSSA-N

>  <PUBCHEM_XLOGP3_AA>  (1) 
6.4

>  <PUBCHEM_EXACT_MASS>  (1) 
470.33960994

>  <PUBCHEM_MOLECULAR_FORMULA>  (1) 
C30H46O4

>  <PUBCHEM_MOLECULAR_WEIGHT>  (1) 
470.7

>  <PUBCHEM_OPENEYE_CAN_SMILES>  (1) 
CC1(C2CCC3(C(C2(CCC1O)C)C(=O)C=C4C3(CCC5(C4CC(CC5)(C)C(=O)O)C)C)C)C

>  <PUBCHEM_OPENEYE_ISO_SMILES>  (1) 
C[C@]12CC[C@](C[C@H]1C3=CC(=O)[C@@H]4[C@]5(CC[C@@H](C([C@@H]5CC[C@]4([C@@]3(CC2)C)C)(C)C)O)C)(C)C(=O)O

>  <PUBCHEM_CACTVS_TPSA>  (1) 
74.6

>  <PUBCHEM_MONOISOTOPIC_WEIGHT>  (1) 
470.33960994

>  <PUBCHEM_TOTAL_CHARGE>  (1) 
0

>  <PUBCHEM_HEAVY_ATOM_COUNT>  (1) 
34

>  <PUBCHEM_ATOM_DEF_STEREO_COUNT>  (1) 
9

>  <PUBCHEM_ATOM_UDEF_STEREO_COUNT>  (1) 
0

>  <PUBCHEM_BOND_DEF_STEREO_COUNT>  (1) 
0

>  <PUBCHEM_BOND_UDEF_STEREO_COUNT>  (1) 
0

>  <PUBCHEM_ISOTOPIC_ATOM_COUNT>  (1) 
0

>  <PUBCHEM_COMPONENT_COUNT>  (1) 
1

>  <PUBCHEM_CACTVS_TAUTO_COUNT>  (1) 
-1

>  <PUBCHEM_COORDINATE_TYPE>  (1) 
1
5
255

>  <PUBCHEM_BONDANNOTATIONS>  (1) 
21  1  5
14  41  5
15  32  5
28  33  6
5  20  5
6  22  5
7  35  6
8  24  6
9  36  6

$$$$
