14187172
     RDKit          2D

 69 76  0  0  1  0  0  0  0  0999 V2000
    7.1519   -4.1288    0.0000 O   0  0  0  0  0  0  0  0  0  0  0  0
    5.4568    0.0614    0.0000 O   0  0  0  0  0  0  0  0  0  0  0  0
    6.1596    6.4431    0.0000 O   0  0  0  0  0  0  0  0  0  0  0  0
    5.4199   -4.1288    0.0000 O   0  0  0  0  0  0  0  0  0  0  0  0
    4.6731    5.5540    0.0000 O   0  0  0  0  0  0  0  0  0  0  0  0
    7.1519   -6.1288    0.0000 O   0  0  0  0  0  0  0  0  0  0  0  0
    5.4199   -7.1288    0.0000 O   0  0  0  0  0  0  0  0  0  0  0  0
    4.6464    7.2858    0.0000 O   0  0  0  0  0  0  0  0  0  0  0  0
    3.6878   -6.1288    0.0000 O   0  0  0  0  0  0  0  0  0  0  0  0
    6.2859   -7.6288    0.0000 O   0  0  0  0  0  0  0  0  0  0  0  0
    7.1327    8.1903    0.0000 O   0  0  0  0  0  0  0  0  0  0  0  0
    2.8218   -4.6288    0.0000 O   0  0  0  0  0  0  0  0  0  0  0  0
    3.6878   -3.1288    0.0000 O   0  0  0  0  0  0  0  0  0  0  0  0
    6.1062    9.9068    0.0000 O   0  0  0  0  0  0  0  0  0  0  0  0
    4.1064    9.8759    0.0000 O   0  0  0  0  0  0  0  0  0  0  0  0
    8.8840   -7.1288    0.0000 O   0  0  0  0  0  0  0  0  0  0  0  0
    8.8840   -9.1288    0.0000 O   0  0  0  0  0  0  0  0  0  0  0  0
    2.6199    8.9869    0.0000 O   0  0  0  0  0  0  0  0  0  0  0  0
    7.1519  -10.1288    0.0000 O   0  0  0  0  0  0  0  0  0  0  0  0
    5.4199  -10.1288    0.0000 O   0  0  0  0  0  0  0  0  0  0  0  0
    4.5538   -8.6288    0.0000 O   0  0  0  0  0  0  0  0  0  0  0  0
    8.0530    0.5714    0.0000 C   0  0  0  0  0  0  0  0  0  0  0  0
    7.1768   -0.9735    0.0000 C   0  0  0  0  0  0  0  0  0  0  0  0
    7.1889    0.0680    0.0000 C   0  0  0  0  0  0  0  0  0  0  0  0
    8.0491    1.5714    0.0000 C   0  0  0  0  0  0  0  0  0  0  0  0
    8.0769   -1.4978    0.0000 C   0  0  0  0  0  0  0  0  0  0  0  0
    8.9649    0.0680    0.0000 C   0  0  0  0  0  0  0  0  0  0  0  0
    8.0894   -2.5827    0.0000 C   0  0  0  0  0  0  0  0  0  0  0  0
    8.9770   -0.9735    0.0000 C   0  0  0  0  0  0  0  0  0  0  0  0
    7.1812    2.0680    0.0000 C   0  0  0  0  0  0  0  0  0  0  0  0
    7.1611    3.1095    0.0000 C   0  0  0  0  0  0  0  0  0  0  0  0
    8.0571    3.6407    0.0000 C   0  0  0  0  0  0  0  0  0  0  0  0
    8.9572    2.0817    0.0000 C   0  0  0  0  0  0  0  0  0  0  0  0
    6.2269   -1.4978    0.0000 C   0  0  0  0  0  0  0  0  0  0  0  0
    8.9612    3.1234    0.0000 C   0  0  0  0  0  0  0  0  0  0  0  0
    7.1519   -3.1288    0.0000 C   0  0  0  0  0  0  0  0  0  0  0  0
    6.3209    0.5647    0.0000 C   0  0  0  0  0  0  0  0  0  0  0  0
    9.0371    0.7488    0.0000 C   0  0  0  0  0  0  0  0  0  0  0  0
    6.2144   -2.5827    0.0000 C   0  0  0  0  0  0  0  0  0  0  0  0
    6.3128   -0.4702    0.0000 C   0  0  0  0  0  0  0  0  0  0  0  0
    9.0346    1.4015    0.0000 C   0  0  0  0  0  0  0  0  0  0  0  0
    6.3171    1.5647    0.0000 C   0  0  0  0  0  0  0  0  0  0  0  0
    6.2072    3.6264    0.0000 C   0  0  0  0  0  0  0  0  0  0  0  0
    8.0613    4.7257    0.0000 C   0  0  0  0  0  0  0  0  0  0  0  0
    6.1863    4.7112    0.0000 C   0  0  0  0  0  0  0  0  0  0  0  0
    9.0894   -2.5750    0.0000 C   0  0  0  0  0  0  0  0  0  0  0  0
    8.5961   -3.4449    0.0000 C   0  0  0  0  0  0  0  0  0  0  0  0
    7.1196    5.2645    0.0000 C   0  0  0  0  0  0  0  0  0  0  0  0
    8.9173    4.1507    0.0000 C   0  0  0  0  0  0  0  0  0  0  0  0
    5.1864    4.6958    0.0000 C   0  0  0  0  0  0  0  0  0  0  0  0
    5.6730    5.5694    0.0000 C   0  0  0  0  0  0  0  0  0  0  0  0
    6.2859   -4.6288    0.0000 C   0  0  0  0  0  0  0  0  0  0  0  0
    6.2859   -5.6288    0.0000 C   0  0  0  0  0  0  0  0  0  0  0  0
    5.4199   -6.1288    0.0000 C   0  0  0  0  0  0  0  0  0  0  0  0
    4.5538   -4.6288    0.0000 C   0  0  0  0  0  0  0  0  0  0  0  0
    4.5538   -5.6288    0.0000 C   0  0  0  0  0  0  0  0  0  0  0  0
    5.6463    7.3013    0.0000 C   0  0  0  0  0  0  0  0  0  0  0  0
    6.1329    8.1749    0.0000 C   0  0  0  0  0  0  0  0  0  0  0  0
    7.1519   -7.1288    0.0000 C   0  0  0  0  0  0  0  0  0  0  0  0
    3.6878   -4.1288    0.0000 C   0  0  0  0  0  0  0  0  0  0  0  0
    5.6196    9.0331    0.0000 C   0  0  0  0  0  0  0  0  0  0  0  0
    4.1331    8.1441    0.0000 C   0  0  0  0  0  0  0  0  0  0  0  0
    4.6197    9.0177    0.0000 C   0  0  0  0  0  0  0  0  0  0  0  0
    8.0180   -7.6288    0.0000 C   0  0  0  0  0  0  0  0  0  0  0  0
    8.0180   -8.6288    0.0000 C   0  0  0  0  0  0  0  0  0  0  0  0
    3.1332    8.1286    0.0000 C   0  0  0  0  0  0  0  0  0  0  0  0
    6.2859   -8.6288    0.0000 C   0  0  0  0  0  0  0  0  0  0  0  0
    7.1519   -9.1288    0.0000 C   0  0  0  0  0  0  0  0  0  0  0  0
    5.4199   -9.1288    0.0000 C   0  0  0  0  0  0  0  0  0  0  0  0
 36  1  1  1
 52  1  1  1
  2 37  2  0
  3 51  1  0
 57  3  1  6
  4 52  1  0
  4 55  1  0
  5 51  2  0
 53  6  1  6
 59  6  1  1
 54  7  1  1
  8 57  1  0
  8 62  1  0
 56  9  1  6
 10 59  1  0
 10 67  1  0
 58 11  1  1
 12 60  1  0
 13 60  2  0
 61 14  1  6
 63 15  1  1
 64 16  1  6
 65 17  1  1
 18 66  1  0
 68 19  1  6
 20 69  1  0
 21 69  2  0
 22 24  1  0
 22 25  1  0
 22 27  1  0
 22 38  1  1
 23 24  1  0
 23 26  1  0
 23 34  1  0
 23 40  1  1
 24 37  1  1
 25 30  1  0
 25 33  1  0
 25 41  1  6
 26 28  1  0
 26 29  1  1
 27 29  1  0
 28 36  1  0
 28 46  1  0
 28 47  1  0
 30 31  1  0
 30 42  2  0
 31 32  1  0
 31 43  1  6
 32 35  1  0
 32 44  1  0
 32 49  1  1
 33 35  1  0
 34 39  1  0
 36 39  1  0
 37 42  1  0
 43 45  1  0
 44 48  1  0
 45 48  1  0
 45 50  1  6
 45 51  1  0
 52 53  1  0
 53 54  1  0
 54 56  1  0
 55 56  1  0
 55 60  1  1
 57 58  1  0
 58 61  1  0
 59 64  1  0
 61 63  1  0
 62 63  1  0
 62 66  1  6
 64 65  1  0
 65 68  1  0
 67 68  1  0
 67 69  1  1
M  END
>  <PUBCHEM_COMPOUND_CID>  (1) 
14187172

>  <PUBCHEM_COMPOUND_CANONICALIZED>  (1) 
1

>  <PUBCHEM_CACTVS_COMPLEXITY>  (1) 
2050

>  <PUBCHEM_CACTVS_HBOND_ACCEPTOR>  (1) 
21

>  <PUBCHEM_CACTVS_HBOND_DONOR>  (1) 
11

>  <PUBCHEM_CACTVS_ROTATABLE_BOND>  (1) 
10

>  <PUBCHEM_CACTVS_SUBSKEYS>  (1) 
AAADcfB8PgAAAAAAAAAAAAAAAAAAAAAAAAA0aNGCAAAAAADAAAAAGgAACAAADxSwgAMCCAAABgCIAqDSCAIAAAAgAAAACAFAAEgREBYAAQQiQAAFoAAPAQPK7PzPgAAAAAAAAADAAAYAADAAAAAAAAAAAA==

>  <PUBCHEM_IUPAC_OPENEYE_NAME>  (1) 
(2S,3S,4S,5R,6R)-6-[(2R,3R,4S,5S,6S)-2-[[(3S,4aR,6aR,6bS,8aS,11S,12aR,14aR,14bS)-4,4,6a,6b,8a,11,14b-heptamethyl-14-oxo-11-[(2S,3R,4S,5S,6R)-3,4,5-trihydroxy-6-(hydroxymethyl)tetrahydropyran-2-yl]oxycarbonyl-2,3,4a,5,6,7,8,9,10,12,12a,14a-dodecahydro-1H-picen-3-yl]oxy]-6-carboxy-4,5-dihydroxy-tetrahydropyran-3-yl]oxy-3,4,5-trihydroxy-tetrahydropyran-2-carboxylic acid

>  <PUBCHEM_IUPAC_CAS_NAME>  (1) 
(2S,3S,4S,5R,6R)-6-[[(2R,3R,4S,5S,6S)-2-[[(3S,4aR,6aR,6bS,8aS,11S,12aR,14aR,14bS)-4,4,6a,6b,8a,11,14b-heptamethyl-14-oxo-11-[oxo-[[(2S,3R,4S,5S,6R)-3,4,5-trihydroxy-6-(hydroxymethyl)-2-oxanyl]oxy]methyl]-2,3,4a,5,6,7,8,9,10,12,12a,14a-dodecahydro-1H-picen-3-yl]oxy]-6-carboxy-4,5-dihydroxy-3-oxanyl]oxy]-3,4,5-trihydroxy-2-oxanecarboxylic acid

>  <PUBCHEM_IUPAC_NAME_MARKUP>  (1) 
(2<I>S</I>,3<I>S</I>,4<I>S</I>,5<I>R</I>,6<I>R</I>)-6-[(2<I>R</I>,3<I>R</I>,4<I>S</I>,5<I>S</I>,6<I>S</I>)-2-[[(3<I>S</I>,4<I>a</I><I>R</I>,6<I>a</I><I>R</I>,6<I>b</I><I>S</I>,8<I>a</I><I>S</I>,11<I>S</I>,12<I>a</I><I>R</I>,14<I>a</I><I>R</I>,14<I>b</I><I>S</I>)-4,4,6<I>a</I>,6<I>b</I>,8<I>a</I>,11,14<I>b</I>-heptamethyl-14-oxo-11-[(2<I>S</I>,3<I>R</I>,4<I>S</I>,5<I>S</I>,6<I>R</I>)-3,4,5-trihydroxy-6-(hydroxymethyl)oxan-2-yl]oxycarbonyl-2,3,4<I>a</I>,5,6,7,8,9,10,12,12<I>a</I>,14<I>a</I>-dodecahydro-1<I>H</I>-picen-3-yl]oxy]-6-carboxy-4,5-dihydroxyoxan-3-yl]oxy-3,4,5-trihydroxyoxane-2-carboxylic acid

>  <PUBCHEM_IUPAC_NAME>  (1) 
(2S,3S,4S,5R,6R)-6-[(2R,3R,4S,5S,6S)-2-[[(3S,4aR,6aR,6bS,8aS,11S,12aR,14aR,14bS)-4,4,6a,6b,8a,11,14b-heptamethyl-14-oxo-11-[(2S,3R,4S,5S,6R)-3,4,5-trihydroxy-6-(hydroxymethyl)oxan-2-yl]oxycarbonyl-2,3,4a,5,6,7,8,9,10,12,12a,14a-dodecahydro-1H-picen-3-yl]oxy]-6-carboxy-4,5-dihydroxyoxan-3-yl]oxy-3,4,5-trihydroxyoxane-2-carboxylic acid

>  <PUBCHEM_IUPAC_SYSTEMATIC_NAME>  (1) 
(2S,3S,4S,5R,6R)-6-[(2R,3R,4S,5S,6S)-2-[[(3S,4aR,6aR,6bS,8aS,11S,12aR,14aR,14bS)-11-[(2S,3R,4S,5S,6R)-6-(hydroxymethyl)-3,4,5-tris(oxidanyl)oxan-2-yl]oxycarbonyl-4,4,6a,6b,8a,11,14b-heptamethyl-14-oxidanylidene-2,3,4a,5,6,7,8,9,10,12,12a,14a-dodecahydro-1H-picen-3-yl]oxy]-6-carboxy-4,5-bis(oxidanyl)oxan-3-yl]oxy-3,4,5-tris(oxidanyl)oxane-2-carboxylic acid

>  <PUBCHEM_IUPAC_TRADITIONAL_NAME>  (1) 
(2S,3S,4S,5R,6R)-6-[(2R,3R,4S,5S,6S)-2-[[(3S,4aR,6aR,6bS,8aS,11S,12aR,14aR,14bS)-14-keto-4,4,6a,6b,8a,11,14b-heptamethyl-11-[(2S,3R,4S,5S,6R)-3,4,5-trihydroxy-6-methylol-tetrahydropyran-2-yl]oxycarbonyl-2,3,4a,5,6,7,8,9,10,12,12a,14a-dodecahydro-1H-picen-3-yl]oxy]-6-carboxy-4,5-dihydroxy-tetrahydropyran-3-yl]oxy-3,4,5-trihydroxy-tetrahydropyran-2-carboxylic acid

>  <PUBCHEM_IUPAC_INCHI>  (1) 
InChI=1S/C48H72O21/c1-43(2)23-8-11-48(7)36(21(50)16-19-20-17-45(4,13-12-44(20,3)14-15-47(19,48)6)42(63)69-39-31(57)26(52)25(51)22(18-49)64-39)46(23,5)10-9-24(43)65-41-35(30(56)29(55)34(67-41)38(61)62)68-40-32(58)27(53)28(54)33(66-40)37(59)60/h16,20,22-36,39-41,49,51-58H,8-15,17-18H2,1-7H3,(H,59,60)(H,61,62)/t20-,22+,23-,24-,25+,26-,27-,28-,29-,30-,31+,32+,33-,34-,35+,36+,39-,40-,41+,44+,45-,46-,47+,48+/m0/s1

>  <PUBCHEM_IUPAC_INCHIKEY>  (1) 
HJFOOTRGDAPZMV-SMVKYPPISA-N

>  <PUBCHEM_XLOGP3_AA>  (1) 
1.9

>  <PUBCHEM_EXACT_MASS>  (1) 
984.45660930

>  <PUBCHEM_MOLECULAR_FORMULA>  (1) 
C48H72O21

>  <PUBCHEM_MOLECULAR_WEIGHT>  (1) 
985.1

>  <PUBCHEM_REFERENCE_STANDARDIZATION>  (1) 
Bypass - this structure was created from CID 14187172

>  <PUBCHEM_OPENEYE_CAN_SMILES>  (1) 
CC1(C2CCC3(C(C2(CCC1OC4C(C(C(C(O4)C(=O)O)O)O)OC5C(C(C(C(O5)C(=O)O)O)O)O)C)C(=O)C=C6C3(CCC7(C6CC(CC7)(C)C(=O)OC8C(C(C(C(O8)CO)O)O)O)C)C)C)C

>  <PUBCHEM_OPENEYE_ISO_SMILES>  (1) 
C[C@]12CC[C@](C[C@H]1C3=CC(=O)[C@@H]4[C@]5(CC[C@@H](C([C@@H]5CC[C@]4([C@@]3(CC2)C)C)(C)C)O[C@H]6[C@@H]([C@H]([C@@H]([C@H](O6)C(=O)O)O)O)O[C@H]7[C@@H]([C@H]([C@@H]([C@H](O7)C(=O)O)O)O)O)C)(C)C(=O)O[C@H]8[C@@H]([C@H]([C@@H]([C@H](O8)CO)O)O)O

>  <PUBCHEM_CACTVS_TPSA>  (1) 
346

>  <PUBCHEM_MONOISOTOPIC_WEIGHT>  (1) 
984.45660930

>  <PUBCHEM_TOTAL_CHARGE>  (1) 
0

>  <PUBCHEM_HEAVY_ATOM_COUNT>  (1) 
69

>  <PUBCHEM_ATOM_DEF_STEREO_COUNT>  (1) 
24

>  <PUBCHEM_ATOM_UDEF_STEREO_COUNT>  (1) 
0

>  <PUBCHEM_BOND_DEF_STEREO_COUNT>  (1) 
0

>  <PUBCHEM_BOND_UDEF_STEREO_COUNT>  (1) 
0

>  <PUBCHEM_ISOTOPIC_ATOM_COUNT>  (1) 
0

>  <PUBCHEM_COMPONENT_COUNT>  (1) 
1

>  <PUBCHEM_CACTVS_TAUTO_COUNT>  (1) 
-1

>  <PUBCHEM_COORDINATE_TYPE>  (1) 
1
5
255

>  <PUBCHEM_BONDANNOTATIONS>  (1) 
36  1  5
52  1  5
58  11  5
61  14  6
63  15  5
64  16  6
65  17  5
68  19  6
22  38  5
23  40  5
24  70  6
25  41  6
26  71  6
57  3  6
31  76  5
32  49  5
45  50  6
55  60  5
53  6  6
59  6  5
62  66  6
67  69  5
54  7  5
56  9  6

$$$$
