5384799
     RDKit          2D

 41 46  0  0  0  0  0  0  0  0999 V2000
    6.9088    2.7653    0.0000 O   0  0  0  0  0  0  0  0  0  0  0  0
    6.0427   -2.7347    0.0000 O   0  0  0  0  0  0  0  0  0  0  0  0
    9.5068    0.2653    0.0000 O   0  0  0  0  0  0  0  0  0  0  0  0
   11.2389    1.2653    0.0000 O   0  0  0  0  0  0  0  0  0  0  0  0
    5.1603    5.7999    0.0000 O   0  0  0  0  0  0  0  0  0  0  0  0
    2.5405   -2.7316    0.0000 O   0  0  0  0  0  0  0  0  0  0  0  0
    6.9088    5.7653    0.0000 O   0  0  0  0  0  0  0  0  0  0  0  0
    3.4446   -1.2347    0.0000 O   0  0  0  0  0  0  0  0  0  0  0  0
    3.3786    2.7411    0.0000 O   0  0  0  0  0  0  0  0  0  0  0  0
    4.2986   -5.8040    0.0000 O   0  0  0  0  0  0  0  0  0  0  0  0
    8.6408    2.7653    0.0000 C   0  0  0  0  0  0  0  0  0  0  0  0
    7.7748    3.2653    0.0000 C   0  0  0  0  0  0  0  0  0  0  0  0
    6.0427    4.2653    0.0000 C   0  0  0  0  0  0  0  0  0  0  0  0
    6.0427    3.2653    0.0000 C   0  0  0  0  0  0  0  0  0  0  0  0
    6.0427   -1.7347    0.0000 C   0  0  0  0  0  0  0  0  0  0  0  0
    6.9088   -1.2347    0.0000 C   0  0  0  0  0  0  0  0  0  0  0  0
    4.3107   -2.7347    0.0000 C   0  0  0  0  0  0  0  0  0  0  0  0
    9.5068    1.2653    0.0000 C   0  0  0  0  0  0  0  0  0  0  0  0
    5.1767   -3.2347    0.0000 C   0  0  0  0  0  0  0  0  0  0  0  0
    8.6408    1.7653    0.0000 C   0  0  0  0  0  0  0  0  0  0  0  0
    7.7748    4.2653    0.0000 C   0  0  0  0  0  0  0  0  0  0  0  0
    6.9088    4.7653    0.0000 C   0  0  0  0  0  0  0  0  0  0  0  0
    9.5068    3.2653    0.0000 C   0  0  0  0  0  0  0  0  0  0  0  0
   10.3728    1.7653    0.0000 C   0  0  0  0  0  0  0  0  0  0  0  0
    8.6408   -0.2347    0.0000 C   0  0  0  0  0  0  0  0  0  0  0  0
    5.1767   -1.2347    0.0000 C   0  0  0  0  0  0  0  0  0  0  0  0
    4.3107   -1.7347    0.0000 C   0  0  0  0  0  0  0  0  0  0  0  0
    5.1488    4.7999    0.0000 C   0  0  0  0  0  0  0  0  0  0  0  0
    7.7748   -1.7347    0.0000 C   0  0  0  0  0  0  0  0  0  0  0  0
    6.9088   -0.2347    0.0000 C   0  0  0  0  0  0  0  0  0  0  0  0
    5.1488    2.7306    0.0000 C   0  0  0  0  0  0  0  0  0  0  0  0
   10.3728    2.7653    0.0000 C   0  0  0  0  0  0  0  0  0  0  0  0
    3.4007   -3.2416    0.0000 C   0  0  0  0  0  0  0  0  0  0  0  0
    8.6408   -1.2347    0.0000 C   0  0  0  0  0  0  0  0  0  0  0  0
    7.7748    0.2653    0.0000 C   0  0  0  0  0  0  0  0  0  0  0  0
    5.1928   -4.2762    0.0000 C   0  0  0  0  0  0  0  0  0  0  0  0
    4.2427    3.2444    0.0000 C   0  0  0  0  0  0  0  0  0  0  0  0
    4.2427    4.2861    0.0000 C   0  0  0  0  0  0  0  0  0  0  0  0
    4.2947   -4.8040    0.0000 C   0  0  0  0  0  0  0  0  0  0  0  0
    3.3926   -4.2832    0.0000 C   0  0  0  0  0  0  0  0  0  0  0  0
   12.1049    1.7653    0.0000 C   0  0  0  0  0  0  0  0  0  0  0  0
  1 12  1  0
  1 14  1  0
  2 15  1  0
  2 19  1  0
  3 18  1  0
  3 25  1  0
  4 24  1  0
  4 41  1  0
  5 28  1  0
  6 33  1  0
  7 22  2  0
  8 27  2  0
  9 37  1  0
 10 39  1  0
 11 12  1  0
 11 20  2  0
 11 23  1  0
 12 21  2  0
 13 14  2  0
 13 22  1  0
 13 28  1  0
 14 31  1  0
 15 16  1  0
 15 26  2  0
 16 29  2  0
 16 30  1  0
 17 19  2  0
 17 27  1  0
 17 33  1  0
 18 20  1  0
 18 24  2  0
 19 36  1  0
 21 22  1  0
 23 32  2  0
 24 32  1  0
 25 34  2  0
 25 35  1  0
 26 27  1  0
 28 38  2  0
 29 34  1  0
 30 35  2  0
 31 37  2  0
 33 40  2  0
 36 39  2  0
 37 38  1  0
 39 40  1  0
M  END
>  <PUBCHEM_COMPOUND_CID>  (1) 
5384799

>  <PUBCHEM_COMPOUND_CANONICALIZED>  (1) 
1

>  <PUBCHEM_CACTVS_COMPLEXITY>  (1) 
1050

>  <PUBCHEM_CACTVS_HBOND_ACCEPTOR>  (1) 
10

>  <PUBCHEM_CACTVS_HBOND_DONOR>  (1) 
4

>  <PUBCHEM_CACTVS_ROTATABLE_BOND>  (1) 
5

>  <PUBCHEM_CACTVS_SUBSKEYS>  (1) 
AAADceB4PAAAAAAAAAAAAAAAAAAAAAAAAAAwYMGCAAAAAACBVAAAGgAACAAADASAmAIyBoAABgCIAqBSAAACCAAkIAAIiAEGiMgNJzaGNRqCeWKl4BUKuQfI7LzOIAABCAAIQABAAAIQABCAAAAAAAAAAA==

>  <PUBCHEM_IUPAC_OPENEYE_NAME>  (1) 
2-[4-[5-(5,7-dihydroxy-4-oxo-chromen-2-yl)-2-methoxy-phenoxy]phenyl]-5,7-dihydroxy-chromen-4-one

>  <PUBCHEM_IUPAC_CAS_NAME>  (1) 
2-[4-[5-(5,7-dihydroxy-4-oxo-1-benzopyran-2-yl)-2-methoxyphenoxy]phenyl]-5,7-dihydroxy-1-benzopyran-4-one

>  <PUBCHEM_IUPAC_NAME_MARKUP>  (1) 
2-[4-[5-(5,7-dihydroxy-4-oxochromen-2-yl)-2-methoxyphenoxy]phenyl]-5,7-dihydroxychromen-4-one

>  <PUBCHEM_IUPAC_NAME>  (1) 
2-[4-[5-(5,7-dihydroxy-4-oxochromen-2-yl)-2-methoxyphenoxy]phenyl]-5,7-dihydroxychromen-4-one

>  <PUBCHEM_IUPAC_SYSTEMATIC_NAME>  (1) 
2-[4-[5-[5,7-bis(oxidanyl)-4-oxidanylidene-chromen-2-yl]-2-methoxy-phenoxy]phenyl]-5,7-bis(oxidanyl)chromen-4-one

>  <PUBCHEM_IUPAC_TRADITIONAL_NAME>  (1) 
2-[4-[5-(5,7-dihydroxy-4-keto-chromen-2-yl)-2-methoxy-phenoxy]phenyl]-5,7-dihydroxy-chromone

>  <PUBCHEM_IUPAC_INCHI>  (1) 
InChI=1S/C31H20O10/c1-38-24-7-4-16(26-14-23(37)31-21(35)10-18(33)12-29(31)41-26)8-27(24)39-19-5-2-15(3-6-19)25-13-22(36)30-20(34)9-17(32)11-28(30)40-25/h2-14,32-35H,1H3

>  <PUBCHEM_IUPAC_INCHIKEY>  (1) 
PRQWQWSKFNQAOG-UHFFFAOYSA-N

>  <PUBCHEM_XLOGP3_AA>  (1) 
5.6

>  <PUBCHEM_EXACT_MASS>  (1) 
552.10564683

>  <PUBCHEM_MOLECULAR_FORMULA>  (1) 
C31H20O10

>  <PUBCHEM_MOLECULAR_WEIGHT>  (1) 
552.5

>  <PUBCHEM_OPENEYE_CAN_SMILES>  (1) 
COC1=C(C=C(C=C1)C2=CC(=O)C3=C(C=C(C=C3O2)O)O)OC4=CC=C(C=C4)C5=CC(=O)C6=C(C=C(C=C6O5)O)O

>  <PUBCHEM_OPENEYE_ISO_SMILES>  (1) 
COC1=C(C=C(C=C1)C2=CC(=O)C3=C(C=C(C=C3O2)O)O)OC4=CC=C(C=C4)C5=CC(=O)C6=C(C=C(C=C6O5)O)O

>  <PUBCHEM_CACTVS_TPSA>  (1) 
152

>  <PUBCHEM_MONOISOTOPIC_WEIGHT>  (1) 
552.10564683

>  <PUBCHEM_TOTAL_CHARGE>  (1) 
0

>  <PUBCHEM_HEAVY_ATOM_COUNT>  (1) 
41

>  <PUBCHEM_ATOM_DEF_STEREO_COUNT>  (1) 
0

>  <PUBCHEM_ATOM_UDEF_STEREO_COUNT>  (1) 
0

>  <PUBCHEM_BOND_DEF_STEREO_COUNT>  (1) 
0

>  <PUBCHEM_BOND_UDEF_STEREO_COUNT>  (1) 
0

>  <PUBCHEM_ISOTOPIC_ATOM_COUNT>  (1) 
0

>  <PUBCHEM_COMPONENT_COUNT>  (1) 
1

>  <PUBCHEM_CACTVS_TAUTO_COUNT>  (1) 
144

>  <PUBCHEM_COORDINATE_TYPE>  (1) 
1
5
255

>  <PUBCHEM_BONDANNOTATIONS>  (1) 
1  12  8
1  14  8
11  20  8
11  23  8
12  21  8
13  14  8
13  22  8
13  28  8
14  31  8
15  26  8
16  29  8
16  30  8
17  19  8
17  27  8
17  33  8
18  20  8
18  24  8
19  36  8
2  15  8
2  19  8
21  22  8
23  32  8
24  32  8
25  34  8
25  35  8
26  27  8
28  38  8
29  34  8
30  35  8
31  37  8
33  40  8
36  39  8
37  38  8
39  40  8

$$$$
