667639
     RDKit          2D

 18 19  0  0  0  0  0  0  0  0999 V2000
    2.5369   -2.9050    0.0000 O   0  0  0  0  0  0  0  0  0  0  0  0
    6.8671    3.5950    0.0000 O   0  0  0  0  0  0  0  0  0  0  0  0
    3.4030    3.5950    0.0000 O   0  0  0  0  0  0  0  0  0  0  0  0
    4.2690   -3.9050    0.0000 O   0  0  0  0  0  0  0  0  0  0  0  0
    5.1350    1.5950    0.0000 C   0  0  0  0  0  0  0  0  0  0  0  0
    4.2690   -0.9050    0.0000 C   0  0  0  0  0  0  0  0  0  0  0  0
    5.1350    0.5950    0.0000 C   0  0  0  0  0  0  0  0  0  0  0  0
    4.2690    0.0950    0.0000 C   0  0  0  0  0  0  0  0  0  0  0  0
    3.4030   -1.4050    0.0000 C   0  0  0  0  0  0  0  0  0  0  0  0
    4.2690    2.0950    0.0000 C   0  0  0  0  0  0  0  0  0  0  0  0
    6.0010    2.0950    0.0000 C   0  0  0  0  0  0  0  0  0  0  0  0
    5.1350   -1.4050    0.0000 C   0  0  0  0  0  0  0  0  0  0  0  0
    3.4030   -2.4050    0.0000 C   0  0  0  0  0  0  0  0  0  0  0  0
    6.0010    3.0950    0.0000 C   0  0  0  0  0  0  0  0  0  0  0  0
    4.2690    3.0950    0.0000 C   0  0  0  0  0  0  0  0  0  0  0  0
    5.1350   -2.4050    0.0000 C   0  0  0  0  0  0  0  0  0  0  0  0
    4.2690   -2.9050    0.0000 C   0  0  0  0  0  0  0  0  0  0  0  0
    5.1350    3.5950    0.0000 C   0  0  0  0  0  0  0  0  0  0  0  0
  1 13  1  0
  2 14  1  0
  3 15  1  0
  4 17  1  0
  5  7  1  0
  5 10  2  0
  5 11  1  0
  6  8  1  0
  6  9  2  0
  6 12  1  0
  7  8  2  0
  9 13  1  0
 10 15  1  0
 11 14  2  0
 12 16  2  0
 13 17  2  0
 14 18  1  0
 15 18  2  0
 16 17  1  0
M  END
>  <PUBCHEM_COMPOUND_CID>  (1) 
667639

>  <PUBCHEM_COMPOUND_CANONICALIZED>  (1) 
1

>  <PUBCHEM_CACTVS_COMPLEXITY>  (1) 
282

>  <PUBCHEM_CACTVS_HBOND_ACCEPTOR>  (1) 
4

>  <PUBCHEM_CACTVS_HBOND_DONOR>  (1) 
4

>  <PUBCHEM_CACTVS_ROTATABLE_BOND>  (1) 
2

>  <PUBCHEM_CACTVS_SUBSKEYS>  (1) 
AAADccBwOAAAAAAAAAAAAAAAAAAAAAAAAAAwYAAAAAAAAAABQAAAGgAACAAADASAmAAwBoAAAgCAAiBCAAACAAAgIAAIiAAGiIgJJyKCERKAcAElwBUJmAeA4BQOIAABCAAAQABAAAIQAACAAAAAAAAAAA==

>  <PUBCHEM_IUPAC_OPENEYE_NAME>  (1) 
4-[(E)-2-(3,5-dihydroxyphenyl)vinyl]benzene-1,2-diol

>  <PUBCHEM_IUPAC_CAS_NAME>  (1) 
4-[(E)-2-(3,5-dihydroxyphenyl)ethenyl]benzene-1,2-diol

>  <PUBCHEM_IUPAC_NAME_MARKUP>  (1) 
4-[(<I>E</I>)-2-(3,5-dihydroxyphenyl)ethenyl]benzene-1,2-diol

>  <PUBCHEM_IUPAC_NAME>  (1) 
4-[(E)-2-(3,5-dihydroxyphenyl)ethenyl]benzene-1,2-diol

>  <PUBCHEM_IUPAC_SYSTEMATIC_NAME>  (1) 
4-[(E)-2-[3,5-bis(oxidanyl)phenyl]ethenyl]benzene-1,2-diol

>  <PUBCHEM_IUPAC_TRADITIONAL_NAME>  (1) 
4-[(E)-2-(3,5-dihydroxyphenyl)vinyl]pyrocatechol

>  <PUBCHEM_IUPAC_INCHI>  (1) 
InChI=1S/C14H12O4/c15-11-5-10(6-12(16)8-11)2-1-9-3-4-13(17)14(18)7-9/h1-8,15-18H/b2-1+

>  <PUBCHEM_IUPAC_INCHIKEY>  (1) 
CDRPUGZCRXZLFL-OWOJBTEDSA-N

>  <PUBCHEM_XLOGP3>  (1) 
2.9

>  <PUBCHEM_EXACT_MASS>  (1) 
244.07355886

>  <PUBCHEM_MOLECULAR_FORMULA>  (1) 
C14H12O4

>  <PUBCHEM_MOLECULAR_WEIGHT>  (1) 
244.24

>  <PUBCHEM_OPENEYE_CAN_SMILES>  (1) 
C1=CC(=C(C=C1C=CC2=CC(=CC(=C2)O)O)O)O

>  <PUBCHEM_OPENEYE_ISO_SMILES>  (1) 
C1=CC(=C(C=C1/C=C/C2=CC(=CC(=C2)O)O)O)O

>  <PUBCHEM_CACTVS_TPSA>  (1) 
80.9

>  <PUBCHEM_MONOISOTOPIC_WEIGHT>  (1) 
244.07355886

>  <PUBCHEM_TOTAL_CHARGE>  (1) 
0

>  <PUBCHEM_HEAVY_ATOM_COUNT>  (1) 
18

>  <PUBCHEM_ATOM_DEF_STEREO_COUNT>  (1) 
0

>  <PUBCHEM_ATOM_UDEF_STEREO_COUNT>  (1) 
0

>  <PUBCHEM_BOND_DEF_STEREO_COUNT>  (1) 
1

>  <PUBCHEM_BOND_UDEF_STEREO_COUNT>  (1) 
0

>  <PUBCHEM_ISOTOPIC_ATOM_COUNT>  (1) 
0

>  <PUBCHEM_COMPONENT_COUNT>  (1) 
1

>  <PUBCHEM_CACTVS_TAUTO_COUNT>  (1) 
-1

>  <PUBCHEM_COORDINATE_TYPE>  (1) 
1
5
255

>  <PUBCHEM_BONDANNOTATIONS>  (1) 
10  15  8
11  14  8
12  16  8
13  17  8
14  18  8
15  18  8
16  17  8
5  10  8
5  11  8
6  12  8
6  9  8
9  13  8

$$$$
