689043
     RDKit          2D

 13 13  0  0  0  0  0  0  0  0999 V2000
    2.5369   -2.1550    0.0000 O   0  0  0  0  0  0  0  0  0  0  0  0
    4.2690   -3.1550    0.0000 O   0  0  0  0  0  0  0  0  0  0  0  0
    6.0010    2.8450    0.0000 O   0  0  0  0  0  0  0  0  0  0  0  0
    4.2690    2.8450    0.0000 O   0  0  0  0  0  0  0  0  0  0  0  0
    4.2690   -0.1550    0.0000 C   0  0  0  0  0  0  0  0  0  0  0  0
    3.4030   -0.6550    0.0000 C   0  0  0  0  0  0  0  0  0  0  0  0
    5.1350   -0.6550    0.0000 C   0  0  0  0  0  0  0  0  0  0  0  0
    3.4030   -1.6550    0.0000 C   0  0  0  0  0  0  0  0  0  0  0  0
    4.2690   -2.1550    0.0000 C   0  0  0  0  0  0  0  0  0  0  0  0
    5.1350   -1.6550    0.0000 C   0  0  0  0  0  0  0  0  0  0  0  0
    4.2690    0.8450    0.0000 C   0  0  0  0  0  0  0  0  0  0  0  0
    5.1350    1.3450    0.0000 C   0  0  0  0  0  0  0  0  0  0  0  0
    5.1350    2.3450    0.0000 C   0  0  0  0  0  0  0  0  0  0  0  0
  1  8  1  0
  2  9  1  0
  3 13  1  0
  4 13  2  0
  5  6  2  0
  5  7  1  0
  5 11  1  0
  6  8  1  0
  7 10  2  0
  8  9  2  0
  9 10  1  0
 11 12  2  0
 12 13  1  0
M  END
>  <PUBCHEM_COMPOUND_CID>  (1) 
689043

>  <PUBCHEM_COMPOUND_CANONICALIZED>  (1) 
1

>  <PUBCHEM_CACTVS_COMPLEXITY>  (1) 
212

>  <PUBCHEM_CACTVS_HBOND_ACCEPTOR>  (1) 
4

>  <PUBCHEM_CACTVS_HBOND_DONOR>  (1) 
3

>  <PUBCHEM_CACTVS_ROTATABLE_BOND>  (1) 
2

>  <PUBCHEM_CACTVS_SUBSKEYS>  (1) 
AAADccBwOAAAAAAAAAAAAAAAAAAAAAAAAAAwAAAAAAAAAAABAAAAGgAACAAADASAmAAwDoAAAgCIAiDSCAACAAAgIAAIiAAGiMgJJiKCERKAcAEkwBEJmYeAwBAOIAABAAAAQABAAAIAAACAAAAAAAAAAA==

>  <PUBCHEM_IUPAC_OPENEYE_NAME>  (1) 
(E)-3-(3,4-dihydroxyphenyl)prop-2-enoic acid

>  <PUBCHEM_IUPAC_CAS_NAME>  (1) 
(E)-3-(3,4-dihydroxyphenyl)-2-propenoic acid

>  <PUBCHEM_IUPAC_NAME_MARKUP>  (1) 
(<I>E</I>)-3-(3,4-dihydroxyphenyl)prop-2-enoic acid

>  <PUBCHEM_IUPAC_NAME>  (1) 
(E)-3-(3,4-dihydroxyphenyl)prop-2-enoic acid

>  <PUBCHEM_IUPAC_SYSTEMATIC_NAME>  (1) 
(E)-3-[3,4-bis(oxidanyl)phenyl]prop-2-enoic acid

>  <PUBCHEM_IUPAC_TRADITIONAL_NAME>  (1) 
(E)-3-(3,4-dihydroxyphenyl)acrylic acid

>  <PUBCHEM_IUPAC_INCHI>  (1) 
InChI=1S/C9H8O4/c10-7-3-1-6(5-8(7)11)2-4-9(12)13/h1-5,10-11H,(H,12,13)/b4-2+

>  <PUBCHEM_IUPAC_INCHIKEY>  (1) 
QAIPRVGONGVQAS-DUXPYHPUSA-N

>  <PUBCHEM_XLOGP3>  (1) 
1.2

>  <PUBCHEM_EXACT_MASS>  (1) 
180.04225873

>  <PUBCHEM_MOLECULAR_FORMULA>  (1) 
C9H8O4

>  <PUBCHEM_MOLECULAR_WEIGHT>  (1) 
180.16

>  <PUBCHEM_OPENEYE_CAN_SMILES>  (1) 
C1=CC(=C(C=C1C=CC(=O)O)O)O

>  <PUBCHEM_OPENEYE_ISO_SMILES>  (1) 
C1=CC(=C(C=C1/C=C/C(=O)O)O)O

>  <PUBCHEM_CACTVS_TPSA>  (1) 
77.8

>  <PUBCHEM_MONOISOTOPIC_WEIGHT>  (1) 
180.04225873

>  <PUBCHEM_TOTAL_CHARGE>  (1) 
0

>  <PUBCHEM_HEAVY_ATOM_COUNT>  (1) 
13

>  <PUBCHEM_ATOM_DEF_STEREO_COUNT>  (1) 
0

>  <PUBCHEM_ATOM_UDEF_STEREO_COUNT>  (1) 
0

>  <PUBCHEM_BOND_DEF_STEREO_COUNT>  (1) 
1

>  <PUBCHEM_BOND_UDEF_STEREO_COUNT>  (1) 
0

>  <PUBCHEM_ISOTOPIC_ATOM_COUNT>  (1) 
0

>  <PUBCHEM_COMPONENT_COUNT>  (1) 
1

>  <PUBCHEM_CACTVS_TAUTO_COUNT>  (1) 
-1

>  <PUBCHEM_COORDINATE_TYPE>  (1) 
1
5
255

>  <PUBCHEM_BONDANNOTATIONS>  (1) 
5  6  8
5  7  8
6  8  8
7  10  8
8  9  8
9  10  8

$$$$
