MCSJ51_0006
  -OEChem-07172407472D

 95102  0     1  0  0  0  0  0999 V2000
   10.5628   -2.6777    0.0000 O   0  0  0  0  0  0  0  0  0  0  0  0
    6.8053   -2.7468    0.0000 O   0  0  0  0  0  0  0  0  0  0  0  0
    7.9707   -2.1477    0.0000 O   0  0  0  0  0  0  0  0  0  0  0  0
    5.0858   -0.7360    0.0000 O   0  0  0  0  0  0  0  0  0  0  0  0
    9.7026    1.9014    0.0000 O   0  0  0  0  0  0  0  0  0  0  0  0
    6.4400    1.5496    0.0000 O   0  0  0  0  0  0  0  0  0  0  0  0
   11.4843    0.8910    0.0000 O   0  0  0  0  0  0  0  0  0  0  0  0
    8.7740   -5.6887    0.0000 O   0  0  0  0  0  0  0  0  0  0  0  0
    3.5440   -4.0234    0.0000 O   0  0  0  0  0  0  0  0  0  0  0  0
    8.2609    1.9653    0.0000 O   0  0  0  0  0  0  0  0  0  0  0  0
   12.3134   -5.7433    0.0000 O   0  0  0  0  0  0  0  0  0  0  0  0
    6.3031   -6.2411    0.0000 O   0  0  0  0  0  0  0  0  0  0  0  0
   11.4345    1.9215    0.0000 O   0  0  0  0  0  0  0  0  0  0  0  0
    5.0858    0.4697    0.0000 O   0  0  0  0  0  0  0  0  0  0  0  0
    8.7962    5.3912    0.0000 O   0  0  0  0  0  0  0  0  0  0  0  0
   12.2600    5.4312    0.0000 O   0  0  0  0  0  0  0  0  0  0  0  0
    2.2265    2.6662    0.0000 O   0  0  0  0  0  0  0  0  0  0  0  0
    4.9348    4.8260    0.0000 O   0  0  0  0  0  0  0  0  0  0  0  0
   10.5165    6.4112    0.0000 O   0  0  0  0  0  0  0  0  0  0  0  0
    2.9572    4.5279    0.0000 O   0  0  0  0  0  0  0  0  0  0  0  0
    9.7026   -2.1678    0.0000 C   0  0  1  0  0  0  0  0  0  0  0  0
    8.8309   -2.6577    0.0000 C   0  0  1  0  0  0  0  0  0  0  0  0
    6.4400   -1.8160    0.0000 C   0  0  1  0  0  0  0  0  0  0  0  0
    9.7142   -1.1678    0.0000 C   0  0  0  0  0  0  0  0  0  0  0  0
    5.4512   -1.6669    0.0000 C   0  0  1  0  0  0  0  0  0  0  0  0
    8.8193   -3.6576    0.0000 C   0  0  0  0  0  0  0  0  0  0  0  0
    8.8202   -0.6332    0.0000 C   0  0  0  0  0  0  0  0  0  0  0  0
    7.0635   -1.0341    0.0000 C   0  0  0  0  0  0  0  0  0  0  0  0
    4.8277   -2.4487    0.0000 C   0  0  0  0  0  0  0  0  0  0  0  0
    9.6795   -4.1676    0.0000 C   0  0  0  0  0  0  0  0  0  0  0  0
    8.0384   -1.2566    0.0000 C   0  0  0  0  0  0  0  0  0  0  0  0
    8.8202    0.3668    0.0000 C   0  0  0  0  0  0  0  0  0  0  0  0
   10.5512   -3.6777    0.0000 C   0  0  0  0  0  0  0  0  0  0  0  0
    5.1930   -3.3796    0.0000 C   0  0  0  0  0  0  0  0  0  0  0  0
   10.6202   -0.6540    0.0000 C   0  0  0  0  0  0  0  0  0  0  0  0
    6.1818   -3.5287    0.0000 C   0  0  0  0  0  0  0  0  0  0  0  0
    6.6296   -0.1332    0.0000 C   0  0  0  0  0  0  0  0  0  0  0  0
    9.7142    0.9015    0.0000 C   0  0  0  0  0  0  0  0  0  0  0  0
   10.6202    0.3877    0.0000 C   0  0  0  0  0  0  0  0  0  0  0  0
    8.0384    0.9903    0.0000 C   0  0  0  0  0  0  0  0  0  0  0  0
    9.6514   -5.2089    0.0000 C   0  0  0  0  0  0  0  0  0  0  0  0
    7.0635    0.7678    0.0000 C   0  0  0  0  0  0  0  0  0  0  0  0
   11.4553   -4.1950    0.0000 C   0  0  0  0  0  0  0  0  0  0  0  0
    4.5311   -4.1839    0.0000 C   0  0  0  0  0  0  0  0  0  0  0  0
    6.5773   -4.4923    0.0000 C   0  0  0  0  0  0  0  0  0  0  0  0
   10.5433   -5.7470    0.0000 C   0  0  0  0  0  0  0  0  0  0  0  0
   11.4513   -5.2366    0.0000 C   0  0  0  0  0  0  0  0  0  0  0  0
    4.9041   -5.1564    0.0000 C   0  0  0  0  0  0  0  0  0  0  0  0
    5.9341   -5.3117    0.0000 C   0  0  0  0  0  0  0  0  0  0  0  0
   10.5628    2.4114    0.0000 C   0  0  0  0  0  0  0  0  0  0  0  0
    5.4512    1.4006    0.0000 C   0  0  0  0  0  0  0  0  0  0  0  0
   10.5512    3.4114    0.0000 C   0  0  0  0  0  0  0  0  0  0  0  0
    4.8277    2.1824    0.0000 C   0  0  0  0  0  0  0  0  0  0  0  0
   11.4114    3.9213    0.0000 C   0  0  0  0  0  0  0  0  0  0  0  0
    9.6795    3.9013    0.0000 C   0  0  0  0  0  0  0  0  0  0  0  0
    5.1930    3.1133    0.0000 C   0  0  0  0  0  0  0  0  0  0  0  0
    3.8388    2.0334    0.0000 C   0  0  0  0  0  0  0  0  0  0  0  0
    9.6679    4.9012    0.0000 C   0  0  0  0  0  0  0  0  0  0  0  0
   11.3999    4.9213    0.0000 C   0  0  0  0  0  0  0  0  0  0  0  0
    3.2153    2.8152    0.0000 C   0  0  0  0  0  0  0  0  0  0  0  0
    4.5695    3.8951    0.0000 C   0  0  0  0  0  0  0  0  0  0  0  0
   10.5281    5.4112    0.0000 C   0  0  0  0  0  0  0  0  0  0  0  0
    3.5807    3.7461    0.0000 C   0  0  0  0  0  0  0  0  0  0  0  0
    8.9715   -1.7343    0.0000 H   0  0  0  0  0  0  0  0  0  0  0  0
    8.2904   -2.9615    0.0000 H   0  0  0  0  0  0  0  0  0  0  0  0
    7.0531   -1.9084    0.0000 H   0  0  0  0  0  0  0  0  0  0  0  0
    5.8377   -1.1822    0.0000 H   0  0  0  0  0  0  0  0  0  0  0  0
    8.2100   -3.5429    0.0000 H   0  0  0  0  0  0  0  0  0  0  0  0
    8.6005   -4.2378    0.0000 H   0  0  0  0  0  0  0  0  0  0  0  0
    4.4174   -1.9839    0.0000 H   0  0  0  0  0  0  0  0  0  0  0  0
    4.2986   -2.7720    0.0000 H   0  0  0  0  0  0  0  0  0  0  0  0
    8.1764   -1.8611    0.0000 H   0  0  0  0  0  0  0  0  0  0  0  0
   11.1560   -0.9660    0.0000 H   0  0  0  0  0  0  0  0  0  0  0  0
    6.0096   -0.1332    0.0000 H   0  0  0  0  0  0  0  0  0  0  0  0
    7.4302   -2.4515    0.0000 H   0  0  0  0  0  0  0  0  0  0  0  0
   11.9922   -3.8850    0.0000 H   0  0  0  0  0  0  0  0  0  0  0  0
    4.4727   -0.6436    0.0000 H   0  0  0  0  0  0  0  0  0  0  0  0
    7.1914   -4.5776    0.0000 H   0  0  0  0  0  0  0  0  0  0  0  0
   10.5337   -6.3669    0.0000 H   0  0  0  0  0  0  0  0  0  0  0  0
    4.5157   -5.6397    0.0000 H   0  0  0  0  0  0  0  0  0  0  0  0
   12.0225    0.5831    0.0000 H   0  0  0  0  0  0  0  0  0  0  0  0
    8.7597   -6.3085    0.0000 H   0  0  0  0  0  0  0  0  0  0  0  0
    3.1519   -4.5037    0.0000 H   0  0  0  0  0  0  0  0  0  0  0  0
   12.3087   -6.3633    0.0000 H   0  0  0  0  0  0  0  0  0  0  0  0
    5.9184   -6.7273    0.0000 H   0  0  0  0  0  0  0  0  0  0  0  0
   11.9519    3.6176    0.0000 H   0  0  0  0  0  0  0  0  0  0  0  0
    9.1462    3.5851    0.0000 H   0  0  0  0  0  0  0  0  0  0  0  0
    5.8061    3.2057    0.0000 H   0  0  0  0  0  0  0  0  0  0  0  0
    3.6123    1.4562    0.0000 H   0  0  0  0  0  0  0  0  0  0  0  0
    8.7890    6.0112    0.0000 H   0  0  0  0  0  0  0  0  0  0  0  0
   12.8005    5.1275    0.0000 H   0  0  0  0  0  0  0  0  0  0  0  0
    2.0000    2.0890    0.0000 H   0  0  0  0  0  0  0  0  0  0  0  0
    4.5483    5.3108    0.0000 H   0  0  0  0  0  0  0  0  0  0  0  0
   11.0499    6.7273    0.0000 H   0  0  0  0  0  0  0  0  0  0  0  0
    2.3441    4.4355    0.0000 H   0  0  0  0  0  0  0  0  0  0  0  0
  1 21  1  0  0  0  0
  1 33  1  0  0  0  0
  2 23  1  0  0  0  0
  2 36  1  0  0  0  0
 22  3  1  1  0  0  0
  3 75  1  0  0  0  0
 25  4  1  1  0  0  0
  4 77  1  0  0  0  0
  5 38  1  0  0  0  0
  5 50  1  0  0  0  0
  6 42  1  0  0  0  0
  6 51  1  0  0  0  0
  7 39  1  0  0  0  0
  7 81  1  0  0  0  0
  8 41  1  0  0  0  0
  8 82  1  0  0  0  0
  9 44  1  0  0  0  0
  9 83  1  0  0  0  0
 10 40  2  0  0  0  0
 11 47  1  0  0  0  0
 11 84  1  0  0  0  0
 12 49  1  0  0  0  0
 12 85  1  0  0  0  0
 13 50  2  0  0  0  0
 14 51  2  0  0  0  0
 15 58  1  0  0  0  0
 15 90  1  0  0  0  0
 16 59  1  0  0  0  0
 16 91  1  0  0  0  0
 17 60  1  0  0  0  0
 17 92  1  0  0  0  0
 18 61  1  0  0  0  0
 18 93  1  0  0  0  0
 19 62  1  0  0  0  0
 19 94  1  0  0  0  0
 20 63  1  0  0  0  0
 20 95  1  0  0  0  0
 21 22  1  0  0  0  0
 21 24  1  0  0  0  0
 21 64  1  6  0  0  0
 22 26  1  0  0  0  0
 22 65  1  0  0  0  0
 23 25  1  0  0  0  0
 23 28  1  1  0  0  0
 23 66  1  0  0  0  0
 24 27  1  0  0  0  0
 24 35  2  0  0  0  0
 25 29  1  0  0  0  0
 25 67  1  0  0  0  0
 26 30  1  0  0  0  0
 26 68  1  0  0  0  0
 26 69  1  0  0  0  0
 27 31  1  0  0  0  0
 27 32  2  0  0  0  0
 28 31  2  0  0  0  0
 28 37  1  0  0  0  0
 29 34  1  0  0  0  0
 29 70  1  0  0  0  0
 29 71  1  0  0  0  0
 30 33  1  0  0  0  0
 30 41  2  0  0  0  0
 31 72  1  0  0  0  0
 32 38  1  0  0  0  0
 32 40  1  0  0  0  0
 33 43  2  0  0  0  0
 34 36  1  0  0  0  0
 34 44  2  0  0  0  0
 35 39  1  0  0  0  0
 35 73  1  0  0  0  0
 36 45  2  0  0  0  0
 37 42  2  0  0  0  0
 37 74  1  0  0  0  0
 38 39  2  0  0  0  0
 40 42  1  0  0  0  0
 41 46  1  0  0  0  0
 43 47  1  0  0  0  0
 43 76  1  0  0  0  0
 44 48  1  0  0  0  0
 45 49  1  0  0  0  0
 45 78  1  0  0  0  0
 46 47  2  0  0  0  0
 46 79  1  0  0  0  0
 48 49  2  0  0  0  0
 48 80  1  0  0  0  0
 50 52  1  0  0  0  0
 51 53  1  0  0  0  0
 52 54  2  0  0  0  0
 52 55  1  0  0  0  0
 53 56  2  0  0  0  0
 53 57  1  0  0  0  0
 54 59  1  0  0  0  0
 54 86  1  0  0  0  0
 55 58  2  0  0  0  0
 55 87  1  0  0  0  0
 56 61  1  0  0  0  0
 56 88  1  0  0  0  0
 57 60  2  0  0  0  0
 57 89  1  0  0  0  0
 58 62  1  0  0  0  0
 59 62  2  0  0  0  0
 60 63  1  0  0  0  0
 61 63  2  0  0  0  0
M  END
> <PUBCHEM_COMPOUND_CID>
21146795

> <PUBCHEM_COMPOUND_CANONICALIZED>
1

> <PUBCHEM_CACTVS_COMPLEXITY>
1730

> <PUBCHEM_CACTVS_HBOND_ACCEPTOR>
20

> <PUBCHEM_CACTVS_HBOND_DONOR>
13

> <PUBCHEM_CACTVS_ROTATABLE_BOND>
8

> <PUBCHEM_CACTVS_SUBSKEYS>
AAADcfB8PgAAAAAAAAAAAAAAAAAAAAAAAAA0aMGDBAAAAACRVAAAGgAACAAADBSgmAIwDoAABgCIAqDSCAICCAAkIAAAiAFGiMgNNzaGNR6Ce2Ol4BULuYfK7PzOoAADCAAYQABAAAYQADCAAAAAAAAAAA==

> <PUBCHEM_IUPAC_OPENEYE_NAME>
[3-hydroxy-5-oxo-4-(3,4,5-trihydroxybenzoyl)oxy-1,8-bis[(2R,3R)-3,5,7-trihydroxychroman-2-yl]benzo[7]annulen-6-yl] 3,4,5-trihydroxybenzoate

> <PUBCHEM_IUPAC_CAS_NAME>
3,4,5-trihydroxybenzoic acid [3-hydroxy-5-oxo-4-[oxo-(3,4,5-trihydroxyphenyl)methoxy]-1,8-bis[(2R,3R)-3,5,7-trihydroxy-3,4-dihydro-2H-1-benzopyran-2-yl]-6-benzo[7]annulenyl] ester

> <PUBCHEM_IUPAC_NAME_MARKUP>
[3-hydroxy-5-oxo-4-(3,4,5-trihydroxybenzoyl)oxy-1,8-bis[(2<I>R</I>,3<I>R</I>)-3,5,7-trihydroxy-3,4-dihydro-2<I>H</I>-chromen-2-yl]benzo[7]annulen-6-yl] 3,4,5-trihydroxybenzoate

> <PUBCHEM_IUPAC_NAME>
[3-hydroxy-5-oxo-4-(3,4,5-trihydroxybenzoyl)oxy-1,8-bis[(2R,3R)-3,5,7-trihydroxy-3,4-dihydro-2H-chromen-2-yl]benzo[7]annulen-6-yl] 3,4,5-trihydroxybenzoate

> <PUBCHEM_IUPAC_SYSTEMATIC_NAME>
[3-oxidanyl-5-oxidanylidene-1,8-bis[(2R,3R)-3,5,7-tris(oxidanyl)-3,4-dihydro-2H-chromen-2-yl]-4-[3,4,5-tris(oxidanyl)phenyl]carbonyloxy-benzo[7]annulen-6-yl] 3,4,5-tris(oxidanyl)benzoate

> <PUBCHEM_IUPAC_TRADITIONAL_NAME>
3,4,5-trihydroxybenzoic acid [4-galloyloxy-3-hydroxy-5-keto-1,8-bis[(2R,3R)-3,5,7-trihydroxychroman-2-yl]benzocyclohepten-6-yl] ester

> <PUBCHEM_IUPAC_INCHI>
InChI=1S/C43H32O20/c44-17-7-23(46)21-12-29(52)39(60-32(21)9-17)14-1-19-20(40-30(53)13-22-24(47)8-18(45)10-33(22)61-40)11-31(54)41(63-43(59)16-4-27(50)37(56)28(51)5-16)35(19)38(57)34(6-14)62-42(58)15-2-25(48)36(55)26(49)3-15/h1-11,29-30,39-40,44-56H,12-13H2/t29-,30-,39-,40-/m1/s1

> <PUBCHEM_IUPAC_INCHIKEY>
FJYGFTHLNNSVPY-BBXLVSEPSA-N

> <PUBCHEM_XLOGP3_AA>
3.2

> <PUBCHEM_EXACT_MASS>
868.14869341

> <PUBCHEM_MOLECULAR_FORMULA>
C43H32O20

> <PUBCHEM_MOLECULAR_WEIGHT>
868.7

> <PUBCHEM_OPENEYE_CAN_SMILES>
C1C(C(OC2=CC(=CC(=C21)O)O)C3=CC4=C(C(=C(C=C4C5C(CC6=C(C=C(C=C6O5)O)O)O)O)OC(=O)C7=CC(=C(C(=C7)O)O)O)C(=O)C(=C3)OC(=O)C8=CC(=C(C(=C8)O)O)O)O

> <PUBCHEM_OPENEYE_ISO_SMILES>
C1[C@H]([C@H](OC2=CC(=CC(=C21)O)O)C3=CC4=C(C(=C(C=C4[C@@H]5[C@@H](CC6=C(C=C(C=C6O5)O)O)O)O)OC(=O)C7=CC(=C(C(=C7)O)O)O)C(=O)C(=C3)OC(=O)C8=CC(=C(C(=C8)O)O)O)O

> <PUBCHEM_CACTVS_TPSA>
351

> <PUBCHEM_MONOISOTOPIC_WEIGHT>
868.14869341

> <PUBCHEM_TOTAL_CHARGE>
0

> <PUBCHEM_HEAVY_ATOM_COUNT>
63

> <PUBCHEM_ATOM_DEF_STEREO_COUNT>
4

> <PUBCHEM_ATOM_UDEF_STEREO_COUNT>
0

> <PUBCHEM_BOND_DEF_STEREO_COUNT>
0

> <PUBCHEM_BOND_UDEF_STEREO_COUNT>
0

> <PUBCHEM_ISOTOPIC_ATOM_COUNT>
0

> <PUBCHEM_COMPONENT_COUNT>
1

> <PUBCHEM_CACTVS_TAUTO_COUNT>
-1

> <PUBCHEM_COORDINATE_TYPE>
1
5
255

> <PUBCHEM_BONDANNOTATIONS>
21  64  6
23  28  5
24  27  8
24  35  8
27  31  8
27  32  8
28  31  8
28  37  8
22  3  5
30  33  8
30  41  8
32  38  8
32  40  8
33  43  8
34  36  8
34  44  8
35  39  8
36  45  8
37  42  8
38  39  8
25  4  5
40  42  8
41  46  8
43  47  8
44  48  8
45  49  8
46  47  8
48  49  8
52  54  8
52  55  8
53  56  8
53  57  8
54  59  8
55  58  8
56  61  8
57  60  8
58  62  8
59  62  8
60  63  8
61  63  8

$$$$
