135509117
     RDKit          2D

 58 60  0  0  1  0  0  0  0  0999 V2000
   10.5724    8.1685    0.0000 O   0  0  0  0  0  0  0  0  0  0  0  0
    7.9743    9.6685    0.0000 O   0  0  0  0  0  0  0  0  0  0  0  0
   10.2063    6.8025    0.0000 O   0  0  0  0  0  0  0  0  0  0  0  0
    7.9743    7.6685    0.0000 O   0  0  0  0  0  0  0  0  0  0  0  0
    8.2118   -1.9623    0.0000 O   0  0  0  0  0  0  0  0  0  0  0  0
   10.7063    5.9364    0.0000 O   0  0  0  0  0  0  0  0  0  0  0  0
   10.5912   -2.9792    0.0000 O   0  0  0  0  0  0  0  0  0  0  0  0
    8.9745   -4.4350    0.0000 O   0  0  0  0  0  0  0  0  0  0  0  0
    8.2064   -0.1257    0.0000 O   0  0  0  0  0  0  0  0  0  0  0  0
    3.2271   -6.9632    0.0000 O   0  0  0  0  0  0  0  0  0  0  0  0
    5.6542   -8.7265    0.0000 O   0  0  0  0  0  0  0  0  0  0  0  0
    2.2091   -8.3644    0.0000 O   0  0  0  0  0  0  0  0  0  0  0  0
    9.2064    5.0704    0.0000 N   0  0  0  0  0  0  0  0  0  0  0  0
    2.9136   -9.9467    0.0000 N   0  0  0  0  0  0  0  0  0  0  0  0
    9.7064    9.6685    0.0000 C   0  0  0  0  0  0  0  0  0  0  0  0
    8.8403    9.1685    0.0000 C   0  0  0  0  0  0  0  0  0  0  0  0
    9.7064    7.6685    0.0000 C   0  0  0  0  0  0  0  0  0  0  0  0
    8.8403    8.1685    0.0000 C   0  0  0  0  0  0  0  0  0  0  0  0
   10.5724    9.1685    0.0000 C   0  0  0  0  0  0  0  0  0  0  0  0
    9.2064    6.8025    0.0000 C   0  0  0  0  0  0  0  0  0  0  0  0
   10.2063   10.5345    0.0000 C   0  0  0  0  0  0  0  0  0  0  0  0
    9.2064   10.5345    0.0000 C   0  0  0  0  0  0  0  0  0  0  0  0
    8.2064    6.8025    0.0000 C   0  0  0  0  0  0  0  0  0  0  0  0
   11.4384    9.6685    0.0000 C   0  0  0  0  0  0  0  0  0  0  0  0
    9.7064    5.9364    0.0000 C   0  0  0  0  0  0  0  0  0  0  0  0
    9.2064   -1.8578    0.0000 C   0  0  0  0  0  0  0  0  0  0  0  0
    9.6131   -2.7713    0.0000 C   0  0  0  0  0  0  0  0  0  0  0  0
    9.7064   -0.9918    0.0000 C   0  0  0  0  0  0  0  0  0  0  0  0
    7.7064    5.9364    0.0000 C   0  0  0  0  0  0  0  0  0  0  0  0
    8.8699   -3.4404    0.0000 C   0  0  0  0  0  0  0  0  0  0  0  0
    8.0039   -2.9404    0.0000 C   0  0  0  0  0  0  0  0  0  0  0  0
   12.3044    9.1685    0.0000 C   0  0  0  0  0  0  0  0  0  0  0  0
    9.2064   -0.1257    0.0000 C   0  0  0  0  0  0  0  0  0  0  0  0
   10.7063   -0.9918    0.0000 C   0  0  0  0  0  0  0  0  0  0  0  0
    9.7064    4.2044    0.0000 C   0  0  0  0  0  0  0  0  0  0  0  0
    9.7064    0.7403    0.0000 C   0  0  0  0  0  0  0  0  0  0  0  0
    7.0904   -3.3472    0.0000 C   0  0  0  0  0  0  0  0  0  0  0  0
   13.1705    9.6685    0.0000 C   0  0  0  0  0  0  0  0  0  0  0  0
    9.2064    3.3384    0.0000 C   0  0  0  0  0  0  0  0  0  0  0  0
    9.2064    1.6063    0.0000 C   0  0  0  0  0  0  0  0  0  0  0  0
   10.7063    0.7403    0.0000 C   0  0  0  0  0  0  0  0  0  0  0  0
    9.7064    2.4724    0.0000 C   0  0  0  0  0  0  0  0  0  0  0  0
    6.9858   -4.3417    0.0000 C   0  0  0  0  0  0  0  0  0  0  0  0
   14.0365    9.1685    0.0000 C   0  0  0  0  0  0  0  0  0  0  0  0
    7.7064    0.7403    0.0000 C   0  0  0  0  0  0  0  0  0  0  0  0
   14.0365    8.1685    0.0000 C   0  0  0  0  0  0  0  0  0  0  0  0
    6.0723   -4.7484    0.0000 C   0  0  0  0  0  0  0  0  0  0  0  0
    5.9678   -5.7430    0.0000 C   0  0  0  0  0  0  0  0  0  0  0  0
    5.0542   -6.1497    0.0000 C   0  0  0  0  0  0  0  0  0  0  0  0
    4.9497   -7.1442    0.0000 C   0  0  0  0  0  0  0  0  0  0  0  0
    5.7587   -7.7320    0.0000 C   0  0  0  0  0  0  0  0  0  0  0  0
    4.0362   -7.5510    0.0000 C   0  0  0  0  0  0  0  0  0  0  0  0
    3.9316   -8.5455    0.0000 C   0  0  0  0  0  0  0  0  0  0  0  0
    3.0181   -8.9522    0.0000 C   0  0  0  0  0  0  0  0  0  0  0  0
    4.7406   -9.1333    0.0000 C   0  0  0  0  0  0  0  0  0  0  0  0
    4.6361  -10.1278    0.0000 C   0  0  0  0  0  0  0  0  0  0  0  0
    3.7226  -10.5345    0.0000 C   0  0  0  0  0  0  0  0  0  0  0  0
    2.0000  -10.3535    0.0000 C   0  0  0  0  0  0  0  0  0  0  0  0
  1 17  1  0
  1 19  1  0
 16  2  1  6
 17  3  1  1
 18  4  1  6
 26  5  1  1
  5 31  1  0
  6 25  2  0
 27  7  1  1
 30  8  1  1
 33  9  1  6
  9 45  1  0
 10 52  2  0
 11 55  1  0
 12 54  2  0
 13 25  1  0
 13 35  1  0
 14 54  1  0
 14 57  1  0
 14 58  1  0
 15 16  1  0
 15 19  1  0
 15 21  1  0
 15 22  1  0
 16 18  1  0
 17 18  1  0
 17 20  1  0
 19 24  1  6
 20 23  1  1
 20 25  1  0
 23 29  1  0
 24 32  2  0
 26 27  1  0
 26 28  1  0
 27 30  1  0
 28 33  1  0
 28 34  1  1
 30 31  1  0
 31 37  1  1
 32 38  1  0
 33 36  1  0
 35 39  1  0
 36 40  2  0
 36 41  1  0
 37 43  2  0
 38 44  2  0
 39 42  2  0
 40 42  1  0
 43 47  1  0
 44 46  1  0
 47 48  2  0
 48 49  1  0
 49 50  2  0
 50 51  1  0
 50 52  1  0
 52 53  1  0
 53 54  1  0
 53 55  2  0
 55 56  1  0
 56 57  2  0
M  END
>  <PUBCHEM_COMPOUND_CID>  (1) 
135509117

>  <PUBCHEM_COMPOUND_CANONICALIZED>  (1) 
1

>  <PUBCHEM_CACTVS_COMPLEXITY>  (1) 
1750

>  <PUBCHEM_CACTVS_HBOND_ACCEPTOR>  (1) 
12

>  <PUBCHEM_CACTVS_HBOND_DONOR>  (1) 
7

>  <PUBCHEM_CACTVS_ROTATABLE_BOND>  (1) 
17

>  <PUBCHEM_CACTVS_SUBSKEYS>  (1) 
AAADcfB/PAAAAAAAAAAAAAAAAAAAASAAAAAkQAAAAAAAAAAAAAAAHgAQCAAADxThgAYCCAPABgCIAqFWUACAAAAgIgAICIEIAEgZFB4IoQAGUAAH9gCPsYP6/P7PAAAAAAAAAAAAAAAAAAAAAAAAAAAAAA==

>  <PUBCHEM_IUPAC_OPENEYE_NAME>  (1) 
(2S)-N-[(2E,4E,6S,7R)-7-[(2S,3S,4R,5R)-3,4-dihydroxy-5-[(1E,3E,5E)-7-(4-hydroxy-1-methyl-2-oxo-3-pyridyl)-6-methyl-7-oxo-hepta-1,3,5-trienyl]tetrahydrofuran-2-yl]-6-methoxy-5-methyl-octa-2,4-dienyl]-2-[(2R,3R,4R,6S)-2,3,4-trihydroxy-5,5-dimethyl-6-[(1E,3Z)-penta-1,3-dienyl]tetrahydropyran-2-yl]butanamide

>  <PUBCHEM_IUPAC_CAS_NAME>  (1) 
(2S)-N-[(2E,4E,6S,7R)-7-[(2S,3S,4R,5R)-3,4-dihydroxy-5-[(1E,3E,5E)-7-(4-hydroxy-1-methyl-2-oxo-3-pyridinyl)-6-methyl-7-oxohepta-1,3,5-trienyl]-2-oxolanyl]-6-methoxy-5-methylocta-2,4-dienyl]-2-[(2R,3R,4R,6S)-2,3,4-trihydroxy-5,5-dimethyl-6-[(1E,3Z)-penta-1,3-dienyl]-2-oxanyl]butanamide

>  <PUBCHEM_IUPAC_NAME_MARKUP>  (1) 
(2<I>S</I>)-<I>N</I>-[(2<I>E</I>,4<I>E</I>,6<I>S</I>,7<I>R</I>)-7-[(2<I>S</I>,3<I>S</I>,4<I>R</I>,5<I>R</I>)-3,4-dihydroxy-5-[(1<I>E</I>,3<I>E</I>,5<I>E</I>)-7-(4-hydroxy-1-methyl-2-oxopyridin-3-yl)-6-methyl-7-oxohepta-1,3,5-trienyl]oxolan-2-yl]-6-methoxy-5-methylocta-2,4-dienyl]-2-[(2<I>R</I>,3<I>R</I>,4<I>R</I>,6<I>S</I>)-2,3,4-trihydroxy-5,5-dimethyl-6-[(1<I>E</I>,3<I>Z</I>)-penta-1,3-dienyl]oxan-2-yl]butanamide

>  <PUBCHEM_IUPAC_NAME>  (1) 
(2S)-N-[(2E,4E,6S,7R)-7-[(2S,3S,4R,5R)-3,4-dihydroxy-5-[(1E,3E,5E)-7-(4-hydroxy-1-methyl-2-oxopyridin-3-yl)-6-methyl-7-oxohepta-1,3,5-trienyl]oxolan-2-yl]-6-methoxy-5-methylocta-2,4-dienyl]-2-[(2R,3R,4R,6S)-2,3,4-trihydroxy-5,5-dimethyl-6-[(1E,3Z)-penta-1,3-dienyl]oxan-2-yl]butanamide

>  <PUBCHEM_IUPAC_SYSTEMATIC_NAME>  (1) 
(2S)-2-[(2R,3R,4R,6S)-5,5-dimethyl-2,3,4-tris(oxidanyl)-6-[(1E,3Z)-penta-1,3-dienyl]oxan-2-yl]-N-[(2E,4E,6S,7R)-6-methoxy-5-methyl-7-[(2S,3S,4R,5R)-5-[(1E,3E,5E)-6-methyl-7-(1-methyl-4-oxidanyl-2-oxidanylidene-pyridin-3-yl)-7-oxidanylidene-hepta-1,3,5-trienyl]-3,4-bis(oxidanyl)oxolan-2-yl]octa-2,4-dienyl]butanamide

>  <PUBCHEM_IUPAC_TRADITIONAL_NAME>  (1) 
(2S)-N-[(2E,4E,6S,7R)-7-[(2S,3S,4R,5R)-3,4-dihydroxy-5-[(1E,3E,5E)-7-(4-hydroxy-2-keto-1-methyl-3-pyridyl)-7-keto-6-methyl-hepta-1,3,5-trienyl]tetrahydrofuran-2-yl]-6-methoxy-5-methyl-octa-2,4-dienyl]-2-[(2R,3R,4R,6S)-2,3,4-trihydroxy-5,5-dimethyl-6-[(1E,3Z)-penta-1,3-dienyl]tetrahydropyran-2-yl]butyramide

>  <PUBCHEM_IUPAC_INCHI>  (1) 
InChI=1S/C44H62N2O12/c1-10-12-14-22-32-43(6,7)39(51)40(52)44(55,58-32)29(11-2)41(53)45-24-18-17-20-27(4)37(56-9)28(5)38-36(50)35(49)31(57-38)21-16-13-15-19-26(3)34(48)33-30(47)23-25-46(8)42(33)54/h10,12-23,25,28-29,31-32,35-40,47,49-52,55H,11,24H2,1-9H3,(H,45,53)/b12-10-,15-13+,18-17+,21-16+,22-14+,26-19+,27-20+/t28-,29-,31-,32+,35+,36+,37-,38+,39+,40-,44-/m1/s1

>  <PUBCHEM_IUPAC_INCHIKEY>  (1) 
NTAHMPNXQOYXSX-WKSONYIQSA-N

>  <PUBCHEM_XLOGP3_AA>  (1) 
4

>  <PUBCHEM_EXACT_MASS>  (1) 
810.43027542

>  <PUBCHEM_MOLECULAR_FORMULA>  (1) 
C44H62N2O12

>  <PUBCHEM_MOLECULAR_WEIGHT>  (1) 
811.0

>  <PUBCHEM_OPENEYE_CAN_SMILES>  (1) 
CCC(C(=O)NCC=CC=C(C)C(C(C)C1C(C(C(O1)C=CC=CC=C(C)C(=O)C2=C(C=CN(C2=O)C)O)O)O)OC)C3(C(C(C(C(O3)C=CC=CC)(C)C)O)O)O

>  <PUBCHEM_OPENEYE_ISO_SMILES>  (1) 
CC[C@H](C(=O)NC/C=C/C=C(\C)/[C@H]([C@@H](C)[C@H]1[C@H]([C@H]([C@H](O1)/C=C/C=C/C=C(\C)/C(=O)C2=C(C=CN(C2=O)C)O)O)O)OC)[C@@]3([C@@H]([C@@H](C([C@@H](O3)/C=C/C=C\C)(C)C)O)O)O

>  <PUBCHEM_CACTVS_TPSA>  (1) 
216

>  <PUBCHEM_MONOISOTOPIC_WEIGHT>  (1) 
810.43027542

>  <PUBCHEM_TOTAL_CHARGE>  (1) 
0

>  <PUBCHEM_HEAVY_ATOM_COUNT>  (1) 
58

>  <PUBCHEM_ATOM_DEF_STEREO_COUNT>  (1) 
11

>  <PUBCHEM_ATOM_UDEF_STEREO_COUNT>  (1) 
0

>  <PUBCHEM_BOND_DEF_STEREO_COUNT>  (1) 
7

>  <PUBCHEM_BOND_UDEF_STEREO_COUNT>  (1) 
0

>  <PUBCHEM_ISOTOPIC_ATOM_COUNT>  (1) 
0

>  <PUBCHEM_COMPONENT_COUNT>  (1) 
1

>  <PUBCHEM_CACTVS_TAUTO_COUNT>  (1) 
-1

>  <PUBCHEM_COORDINATE_TYPE>  (1) 
1
5
255

>  <PUBCHEM_BONDANNOTATIONS>  (1) 
14  54  8
14  57  8
19  24  6
16  2  6
20  23  5
26  75  6
28  34  5
17  3  5
31  37  5
18  4  6
53  54  8
53  55  8
55  56  8
56  57  8
27  7  5
30  8  5
33  9  6

$$$$
