10700345
     RDKit          2D

 54 60  0  0  1  0  0  0  0  0999 V2000
    8.7515    0.2004    0.0000 O   0  0  0  0  0  0  0  0  0  0  0  0
    3.6484    4.2823    0.0000 O   0  0  0  0  0  0  0  0  0  0  0  0
   12.3661    0.1726    0.0000 O   0  0  0  0  0  0  0  0  0  0  0  0
   11.5001   -1.3274    0.0000 O   0  0  0  0  0  0  0  0  0  0  0  0
    2.0000    4.8140    0.0000 O   0  0  0  0  0  0  0  0  0  0  0  0
   14.0982   -0.8274    0.0000 O   0  0  0  0  0  0  0  0  0  0  0  0
   14.0982   -2.8274    0.0000 O   0  0  0  0  0  0  0  0  0  0  0  0
   12.3661   -3.8274    0.0000 O   0  0  0  0  0  0  0  0  0  0  0  0
   10.6341   -3.8274    0.0000 O   0  0  0  0  0  0  0  0  0  0  0  0
    8.9020   -3.8274    0.0000 O   0  0  0  0  0  0  0  0  0  0  0  0
   10.6341   -5.8274    0.0000 O   0  0  0  0  0  0  0  0  0  0  0  0
    8.9020   -6.8274    0.0000 O   0  0  0  0  0  0  0  0  0  0  0  0
    7.1700   -5.8274    0.0000 O   0  0  0  0  0  0  0  0  0  0  0  0
    7.1700   -2.8274    0.0000 O   0  0  0  0  0  0  0  0  0  0  0  0
    7.0141    3.2963    0.0000 C   0  0  0  0  0  0  0  0  0  0  0  0
    7.8782    3.7997    0.0000 C   0  0  0  0  0  0  0  0  0  0  0  0
    8.7462    3.3030    0.0000 C   0  0  0  0  0  0  0  0  0  0  0  0
    8.7500    2.3030    0.0000 C   0  0  0  0  0  0  0  0  0  0  0  0
    6.2745    3.9606    0.0000 C   0  0  0  0  0  0  0  0  0  0  0  0
    7.0180    2.2963    0.0000 C   0  0  0  0  0  0  0  0  0  0  0  0
    9.6460    1.7718    0.0000 C   0  0  0  0  0  0  0  0  0  0  0  0
    7.6652    4.7707    0.0000 C   0  0  0  0  0  0  0  0  0  0  0  0
    7.8859    1.7997    0.0000 C   0  0  0  0  0  0  0  0  0  0  0  0
    6.6761    4.8699    0.0000 C   0  0  0  0  0  0  0  0  0  0  0  0
    9.6380    3.8411    0.0000 C   0  0  0  0  0  0  0  0  0  0  0  0
    5.2968    3.7506    0.0000 C   0  0  0  0  0  0  0  0  0  0  0  0
    6.1500    2.7930    0.0000 C   0  0  0  0  0  0  0  0  0  0  0  0
   10.5501    2.2891    0.0000 C   0  0  0  0  0  0  0  0  0  0  0  0
    9.6251    0.6870    0.0000 C   0  0  0  0  0  0  0  0  0  0  0  0
   10.5461    3.3308    0.0000 C   0  0  0  0  0  0  0  0  0  0  0  0
    8.7780    1.2751    0.0000 C   0  0  0  0  0  0  0  0  0  0  0  0
   11.4959    1.7575    0.0000 C   0  0  0  0  0  0  0  0  0  0  0  0
   10.5584    0.1337    0.0000 C   0  0  0  0  0  0  0  0  0  0  0  0
    4.6261    4.4923    0.0000 C   0  0  0  0  0  0  0  0  0  0  0  0
   11.5001    0.6726    0.0000 C   0  0  0  0  0  0  0  0  0  0  0  0
    4.9898    2.7989    0.0000 C   0  0  0  0  0  0  0  0  0  0  0  0
    4.9331    5.4440    0.0000 C   0  0  0  0  0  0  0  0  0  0  0  0
    4.2624    6.1857    0.0000 C   0  0  0  0  0  0  0  0  0  0  0  0
   12.3661   -0.8274    0.0000 C   0  0  0  0  0  0  0  0  0  0  0  0
    2.9777    5.0240    0.0000 C   0  0  0  0  0  0  0  0  0  0  0  0
    3.2847    5.9758    0.0000 C   0  0  0  0  0  0  0  0  0  0  0  0
   13.2322   -1.3274    0.0000 C   0  0  0  0  0  0  0  0  0  0  0  0
    4.5694    7.1374    0.0000 C   0  0  0  0  0  0  0  0  0  0  0  0
    2.6140    6.7175    0.0000 C   0  0  0  0  0  0  0  0  0  0  0  0
   13.2322   -2.3274    0.0000 C   0  0  0  0  0  0  0  0  0  0  0  0
   11.5001   -2.3274    0.0000 C   0  0  0  0  0  0  0  0  0  0  0  0
   12.3661   -2.8274    0.0000 C   0  0  0  0  0  0  0  0  0  0  0  0
   10.6341   -2.8274    0.0000 C   0  0  0  0  0  0  0  0  0  0  0  0
    9.7680   -4.3274    0.0000 C   0  0  0  0  0  0  0  0  0  0  0  0
    9.7680   -5.3274    0.0000 C   0  0  0  0  0  0  0  0  0  0  0  0
    8.9020   -5.8274    0.0000 C   0  0  0  0  0  0  0  0  0  0  0  0
    8.0360   -4.3274    0.0000 C   0  0  0  0  0  0  0  0  0  0  0  0
    8.0360   -5.3274    0.0000 C   0  0  0  0  0  0  0  0  0  0  0  0
    7.1700   -3.8274    0.0000 C   0  0  0  0  0  0  0  0  0  0  0  0
 29  1  1  6
  2 34  1  0
  2 40  1  0
 35  3  1  1
 39  3  1  1
  4 39  1  0
  4 46  1  0
  5 40  2  0
 42  6  1  6
 45  7  1  1
 47  8  1  6
  9 48  1  0
 49  9  1  1
 10 49  1  0
 10 52  1  0
 50 11  1  6
 51 12  1  1
 53 13  1  6
 14 54  1  0
 15 16  1  0
 15 19  1  0
 15 20  1  0
 15 27  1  1
 16 17  1  0
 16 22  1  1
 17 18  1  0
 17 25  1  6
 18 21  1  0
 18 23  1  1
 19 24  1  1
 19 26  1  0
 20 23  1  0
 21 28  1  0
 21 29  1  0
 21 31  1  1
 22 24  1  0
 25 30  1  0
 26 34  1  0
 26 36  1  6
 28 30  2  0
 28 32  1  0
 29 33  1  0
 32 35  1  0
 33 35  1  0
 34 37  1  6
 37 38  1  0
 38 41  2  0
 38 43  1  0
 39 42  1  0
 40 41  1  0
 41 44  1  0
 42 45  1  0
 45 47  1  0
 46 47  1  0
 46 48  1  1
 49 50  1  0
 50 51  1  0
 51 53  1  0
 52 53  1  0
 52 54  1  1
M  END
>  <PUBCHEM_COMPOUND_CID>  (1) 
10700345

>  <PUBCHEM_COMPOUND_CANONICALIZED>  (1) 
1

>  <PUBCHEM_CACTVS_COMPLEXITY>  (1) 
1450

>  <PUBCHEM_CACTVS_HBOND_ACCEPTOR>  (1) 
14

>  <PUBCHEM_CACTVS_HBOND_DONOR>  (1) 
8

>  <PUBCHEM_CACTVS_ROTATABLE_BOND>  (1) 
8

>  <PUBCHEM_CACTVS_SUBSKEYS>  (1) 
AAADcfB8PAAAAAAAAAAAAAAAAAAAAYAAAAA0aIECAAAAAGCAAAAAGgAACAAADxSwgAMCCAAABgCIAiDSCAAAAAAgAAAACAEAAEgRFAIAIQAiUAAFwAAPIQPA4PwPgAAAAAAAAADAAAQQADAAAQAACAAAAA==

>  <PUBCHEM_IUPAC_OPENEYE_NAME>  (1) 
(2R)-2-[(1S)-1-[(1S,3R,8S,9S,10R,13S,14S,17R)-1-hydroxy-10,13-dimethyl-3-[(2R,3R,4S,5S,6R)-3,4,5-trihydroxy-6-[[(2R,3R,4S,5S,6R)-3,4,5-trihydroxy-6-(hydroxymethyl)tetrahydropyran-2-yl]oxymethyl]tetrahydropyran-2-yl]oxy-2,3,4,7,8,9,11,12,14,15,16,17-dodecahydro-1H-cyclopenta[a]phenanthren-17-yl]ethyl]-4,5-dimethyl-2,3-dihydropyran-6-one

>  <PUBCHEM_IUPAC_CAS_NAME>  (1) 
(2R)-2-[(1S)-1-[(1S,3R,8S,9S,10R,13S,14S,17R)-1-hydroxy-10,13-dimethyl-3-[[(2R,3R,4S,5S,6R)-3,4,5-trihydroxy-6-[[(2R,3R,4S,5S,6R)-3,4,5-trihydroxy-6-(hydroxymethyl)-2-oxanyl]oxymethyl]-2-oxanyl]oxy]-2,3,4,7,8,9,11,12,14,15,16,17-dodecahydro-1H-cyclopenta[a]phenanthren-17-yl]ethyl]-4,5-dimethyl-2,3-dihydropyran-6-one

>  <PUBCHEM_IUPAC_NAME_MARKUP>  (1) 
(2<I>R</I>)-2-[(1<I>S</I>)-1-[(1<I>S</I>,3<I>R</I>,8<I>S</I>,9<I>S</I>,10<I>R</I>,13<I>S</I>,14<I>S</I>,17<I>R</I>)-1-hydroxy-10,13-dimethyl-3-[(2<I>R</I>,3<I>R</I>,4<I>S</I>,5<I>S</I>,6<I>R</I>)-3,4,5-trihydroxy-6-[[(2<I>R</I>,3<I>R</I>,4<I>S</I>,5<I>S</I>,6<I>R</I>)-3,4,5-trihydroxy-6-(hydroxymethyl)oxan-2-yl]oxymethyl]oxan-2-yl]oxy-2,3,4,7,8,9,11,12,14,15,16,17-dodecahydro-1<I>H</I>-cyclopenta[a]phenanthren-17-yl]ethyl]-4,5-dimethyl-2,3-dihydropyran-6-one

>  <PUBCHEM_IUPAC_NAME>  (1) 
(2R)-2-[(1S)-1-[(1S,3R,8S,9S,10R,13S,14S,17R)-1-hydroxy-10,13-dimethyl-3-[(2R,3R,4S,5S,6R)-3,4,5-trihydroxy-6-[[(2R,3R,4S,5S,6R)-3,4,5-trihydroxy-6-(hydroxymethyl)oxan-2-yl]oxymethyl]oxan-2-yl]oxy-2,3,4,7,8,9,11,12,14,15,16,17-dodecahydro-1H-cyclopenta[a]phenanthren-17-yl]ethyl]-4,5-dimethyl-2,3-dihydropyran-6-one

>  <PUBCHEM_IUPAC_SYSTEMATIC_NAME>  (1) 
(2R)-2-[(1S)-1-[(1S,3R,8S,9S,10R,13S,14S,17R)-3-[(2R,3R,4S,5S,6R)-6-[[(2R,3R,4S,5S,6R)-6-(hydroxymethyl)-3,4,5-tris(oxidanyl)oxan-2-yl]oxymethyl]-3,4,5-tris(oxidanyl)oxan-2-yl]oxy-10,13-dimethyl-1-oxidanyl-2,3,4,7,8,9,11,12,14,15,16,17-dodecahydro-1H-cyclopenta[a]phenanthren-17-yl]ethyl]-4,5-dimethyl-2,3-dihydropyran-6-one

>  <PUBCHEM_IUPAC_TRADITIONAL_NAME>  (1) 
(2R)-2-[(1S)-1-[(1S,3R,8S,9S,10R,13S,14S,17R)-1-hydroxy-10,13-dimethyl-3-[(2R,3R,4S,5S,6R)-3,4,5-trihydroxy-6-[[(2R,3R,4S,5S,6R)-3,4,5-trihydroxy-6-methylol-tetrahydropyran-2-yl]oxymethyl]tetrahydropyran-2-yl]oxy-2,3,4,7,8,9,11,12,14,15,16,17-dodecahydro-1H-cyclopenta[a]phenanthren-17-yl]ethyl]-4,5-dimethyl-2,3-dihydropyran-6-one

>  <PUBCHEM_IUPAC_INCHI>  (1) 
InChI=1S/C40H62O14/c1-17-12-26(52-36(49)18(17)2)19(3)23-8-9-24-22-7-6-20-13-21(14-29(42)40(20,5)25(22)10-11-39(23,24)4)51-38-35(48)33(46)31(44)28(54-38)16-50-37-34(47)32(45)30(43)27(15-41)53-37/h6,19,21-35,37-38,41-48H,7-16H2,1-5H3/t19-,21+,22-,23+,24-,25-,26+,27+,28+,29-,30+,31+,32-,33-,34+,35+,37+,38+,39+,40-/m0/s1

>  <PUBCHEM_IUPAC_INCHIKEY>  (1) 
ZBLWKSUMHLVXAM-KFJRISAASA-N

>  <PUBCHEM_XLOGP3_AA>  (1) 
1.7

>  <PUBCHEM_EXACT_MASS>  (1) 
766.41395665

>  <PUBCHEM_MOLECULAR_FORMULA>  (1) 
C40H62O14

>  <PUBCHEM_MOLECULAR_WEIGHT>  (1) 
766.9

>  <PUBCHEM_OPENEYE_CAN_SMILES>  (1) 
CC1=C(C(=O)OC(C1)C(C)C2CCC3C2(CCC4C3CC=C5C4(C(CC(C5)OC6C(C(C(C(O6)COC7C(C(C(C(O7)CO)O)O)O)O)O)O)O)C)C)C

>  <PUBCHEM_OPENEYE_ISO_SMILES>  (1) 
CC1=C(C(=O)O[C@H](C1)[C@@H](C)[C@H]2CC[C@@H]3[C@@]2(CC[C@H]4[C@H]3CC=C5[C@@]4([C@H](C[C@@H](C5)O[C@H]6[C@@H]([C@H]([C@@H]([C@H](O6)CO[C@H]7[C@@H]([C@H]([C@@H]([C@H](O7)CO)O)O)O)O)O)O)O)C)C)C

>  <PUBCHEM_CACTVS_TPSA>  (1) 
225

>  <PUBCHEM_MONOISOTOPIC_WEIGHT>  (1) 
766.41395665

>  <PUBCHEM_TOTAL_CHARGE>  (1) 
0

>  <PUBCHEM_HEAVY_ATOM_COUNT>  (1) 
54

>  <PUBCHEM_ATOM_DEF_STEREO_COUNT>  (1) 
20

>  <PUBCHEM_ATOM_UDEF_STEREO_COUNT>  (1) 
0

>  <PUBCHEM_BOND_DEF_STEREO_COUNT>  (1) 
0

>  <PUBCHEM_BOND_UDEF_STEREO_COUNT>  (1) 
0

>  <PUBCHEM_ISOTOPIC_ATOM_COUNT>  (1) 
0

>  <PUBCHEM_COMPONENT_COUNT>  (1) 
1

>  <PUBCHEM_CACTVS_TAUTO_COUNT>  (1) 
-1

>  <PUBCHEM_COORDINATE_TYPE>  (1) 
1
5
255

>  <PUBCHEM_BONDANNOTATIONS>  (1) 
29  1  6
50  11  6
51  12  5
53  13  6
15  27  5
16  55  6
17  56  5
18  57  6
19  58  6
21  31  5
26  36  6
35  3  5
39  3  5
34  82  5
46  48  5
52  54  5
42  6  6
45  7  5
47  8  6
49  9  5

$$$$
