73078
     RDKit          2D

 46 52  0  0  1  0  0  0  0  0999 V2000
    7.2066    1.2758    0.0000 O   0  0  0  0  0  0  0  0  0  0  0  0
    7.7556    3.7303    0.0000 O   0  0  0  0  0  0  0  0  0  0  0  0
    8.9657    4.2918    0.0000 O   0  0  0  0  0  0  0  0  0  0  0  0
    6.6743    3.7214    0.0000 O   0  0  0  0  0  0  0  0  0  0  0  0
    5.9340   -2.9296    0.0000 O   0  0  0  0  0  0  0  0  0  0  0  0
    7.5064   -4.1713    0.0000 O   0  0  0  0  0  0  0  0  0  0  0  0
    9.8338   -0.2166    0.0000 N   0  0  0  0  0  0  0  0  0  0  0  0
    2.8660    1.7770    0.0000 N   0  0  0  0  0  0  0  0  0  0  0  0
    8.9657    0.2846    0.0000 C   0  0  0  0  0  0  0  0  0  0  0  0
    3.7341    1.2758    0.0000 C   0  0  0  0  0  0  0  0  0  0  0  0
    8.9657    1.2870    0.0000 C   0  0  0  0  0  0  0  0  0  0  0  0
   10.7020    0.2846    0.0000 C   0  0  0  0  0  0  0  0  0  0  0  0
    9.8338    1.7882    0.0000 C   0  0  0  0  0  0  0  0  0  0  0  0
   10.7020    1.2870    0.0000 C   0  0  0  0  0  0  0  0  0  0  0  0
    4.6022    1.7770    0.0000 C   0  0  0  0  0  0  0  0  0  0  0  0
    8.0976   -0.2166    0.0000 C   0  0  0  0  0  0  0  0  0  0  0  0
    2.8660    2.7795    0.0000 C   0  0  0  0  0  0  0  0  0  0  0  0
    4.6022    2.7795    0.0000 C   0  0  0  0  0  0  0  0  0  0  0  0
    3.7341    3.2807    0.0000 C   0  0  0  0  0  0  0  0  0  0  0  0
    3.7341    0.2734    0.0000 C   0  0  0  0  0  0  0  0  0  0  0  0
    8.0976    1.7882    0.0000 C   0  0  0  0  0  0  0  0  0  0  0  0
    5.4704    1.2758    0.0000 C   0  0  0  0  0  0  0  0  0  0  0  0
    9.8338   -1.2166    0.0000 C   0  0  0  0  0  0  0  0  0  0  0  0
    9.8338    2.7906    0.0000 C   0  0  0  0  0  0  0  0  0  0  0  0
    6.3385    1.7770    0.0000 C   0  0  0  0  0  0  0  0  0  0  0  0
    7.9431   -1.1983    0.0000 C   0  0  0  0  0  0  0  0  0  0  0  0
    5.4704    3.2807    0.0000 C   0  0  0  0  0  0  0  0  0  0  0  0
    8.0976    2.7906    0.0000 C   0  0  0  0  0  0  0  0  0  0  0  0
    2.0000    1.2770    0.0000 C   0  0  0  0  0  0  0  0  0  0  0  0
    4.2424   -0.5074    0.0000 C   0  0  0  0  0  0  0  0  0  0  0  0
    8.9657    3.2918    0.0000 C   0  0  0  0  0  0  0  0  0  0  0  0
    6.3385    2.7795    0.0000 C   0  0  0  0  0  0  0  0  0  0  0  0
    7.0114   -1.5681    0.0000 C   0  0  0  0  0  0  0  0  0  0  0  0
    8.7292   -1.8204    0.0000 C   0  0  0  0  0  0  0  0  0  0  0  0
    5.2438   -0.4635    0.0000 C   0  0  0  0  0  0  0  0  0  0  0  0
    3.7797   -1.3966    0.0000 C   0  0  0  0  0  0  0  0  0  0  0  0
    6.8657   -2.5598    0.0000 C   0  0  0  0  0  0  0  0  0  0  0  0
    8.5835   -2.8121    0.0000 C   0  0  0  0  0  0  0  0  0  0  0  0
    5.3198   -2.1981    0.0000 C   0  0  0  0  0  0  0  0  0  0  0  0
    5.7826   -1.3088    0.0000 C   0  0  0  0  0  0  0  0  0  0  0  0
    4.3184   -2.2419    0.0000 C   0  0  0  0  0  0  0  0  0  0  0  0
    7.6518   -3.1819    0.0000 C   0  0  0  0  0  0  0  0  0  0  0  0
    8.3984    4.4963    0.0000 C   0  0  0  0  0  0  0  0  0  0  0  0
    6.0264    4.4832    0.0000 C   0  0  0  0  0  0  0  0  0  0  0  0
    9.8318    4.7918    0.0000 C   0  0  0  0  0  0  0  0  0  0  0  0
    8.2906   -4.7918    0.0000 C   0  0  0  0  0  0  0  0  0  0  0  0
  1 21  1  0
  1 25  1  0
  2 28  1  0
  2 43  1  0
  3 31  1  0
  3 45  1  0
  4 32  1  0
  4 44  1  0
  5 37  1  0
  5 39  1  0
  6 42  1  0
  6 46  1  0
  9  7  1  1
  7 12  1  0
  7 23  1  0
 10  8  1  6
  8 17  1  0
  8 29  1  0
  9 11  1  0
  9 16  1  0
 10 15  1  0
 10 20  1  0
 11 13  2  0
 11 21  1  0
 12 14  1  0
 13 14  1  0
 13 24  1  0
 15 18  2  0
 15 22  1  0
 16 26  1  0
 17 19  1  0
 18 19  1  0
 18 27  1  0
 20 30  1  0
 21 28  2  0
 22 25  2  0
 24 31  2  0
 25 32  1  0
 26 33  1  0
 26 34  2  0
 27 32  2  0
 28 31  1  0
 30 35  2  0
 30 36  1  0
 33 37  2  0
 34 38  1  0
 35 40  1  0
 36 41  2  0
 37 42  1  0
 38 42  2  0
 39 40  2  0
 39 41  1  0
M  END
>  <PUBCHEM_COMPOUND_CID>  (1) 
73078

>  <PUBCHEM_COMPOUND_CANONICALIZED>  (1) 
1

>  <PUBCHEM_CACTVS_COMPLEXITY>  (1) 
979

>  <PUBCHEM_CACTVS_HBOND_ACCEPTOR>  (1) 
8

>  <PUBCHEM_CACTVS_HBOND_DONOR>  (1) 
0

>  <PUBCHEM_CACTVS_ROTATABLE_BOND>  (1) 
4

>  <PUBCHEM_CACTVS_SUBSKEYS>  (1) 
AAADcfB/OAAAAAAAAAAAAAAAAAAAAAAAAAA8eMGCAAAAAACxVAAAHgAAAAAADCzBmAYyBoMABACAAiBCAACCCAAgIAAIiAAOjIgNJyKEsRuGOCrnwBWKqAew8P8OoAABCAAYQABAAAIQADCAAAAAAAAAAA==

>  <PUBCHEM_IUPAC_OPENEYE_NAME>  (1) 
(1S,14S)-9,20,21,25-tetramethoxy-15,30-dimethyl-7,23-dioxa-15,30-diazaheptacyclo[22.6.2.23,6.18,12.114,18.027,31.022,33]hexatriaconta-3(36),4,6(35),8,10,12(34),18,20,22(33),24,26,31-dodecaene

>  <PUBCHEM_IUPAC_CAS_NAME>  (1) 
(1S,14S)-9,20,21,25-tetramethoxy-15,30-dimethyl-7,23-dioxa-15,30-diazaheptacyclo[22.6.2.23,6.18,12.114,18.027,31.022,33]hexatriaconta-3(36),4,6(35),8,10,12(34),18,20,22(33),24,26,31-dodecaene

>  <PUBCHEM_IUPAC_NAME_MARKUP>  (1) 
(1<I>S</I>,14<I>S</I>)-9,20,21,25-tetramethoxy-15,30-dimethyl-7,23-dioxa-15,30-diazaheptacyclo[22.6.2.2<SUP>3,6</SUP>.1<SUP>8,12</SUP>.1<SUP>14,18</SUP>.0<SUP>27,31</SUP>.0<SUP>22,33</SUP>]hexatriaconta-3(36),4,6(35),8,10,12(34),18,20,22(33),24,26,31-dodecaene

>  <PUBCHEM_IUPAC_NAME>  (1) 
(1S,14S)-9,20,21,25-tetramethoxy-15,30-dimethyl-7,23-dioxa-15,30-diazaheptacyclo[22.6.2.23,6.18,12.114,18.027,31.022,33]hexatriaconta-3(36),4,6(35),8,10,12(34),18,20,22(33),24,26,31-dodecaene

>  <PUBCHEM_IUPAC_SYSTEMATIC_NAME>  (1) 
(1S,14S)-9,20,21,25-tetramethoxy-15,30-dimethyl-7,23-dioxa-15,30-diazaheptacyclo[22.6.2.23,6.18,12.114,18.027,31.022,33]hexatriaconta-3(36),4,6(35),8,10,12(34),18,20,22(33),24,26,31-dodecaene

>  <PUBCHEM_IUPAC_TRADITIONAL_NAME>  (1) 
(1S,14S)-9,20,21,25-tetramethoxy-15,30-dimethyl-7,23-dioxa-15,30-diazaheptacyclo[22.6.2.23,6.18,12.114,18.027,31.022,33]hexatriaconta-3(36),4,6(35),8,10,12(34),18,20,22(33),24,26,31-dodecaene

>  <PUBCHEM_IUPAC_INCHI>  (1) 
InChI=1S/C38H42N2O6/c1-39-15-13-25-20-32(42-4)34-22-28(25)29(39)17-23-7-10-27(11-8-23)45-33-19-24(9-12-31(33)41-3)18-30-36-26(14-16-40(30)2)21-35(43-5)37(44-6)38(36)46-34/h7-12,19-22,29-30H,13-18H2,1-6H3/t29-,30-/m0/s1

>  <PUBCHEM_IUPAC_INCHIKEY>  (1) 
WVTKBKWTSCPRNU-KYJUHHDHSA-N

>  <PUBCHEM_XLOGP3_AA>  (1) 
6.4

>  <PUBCHEM_EXACT_MASS>  (1) 
622.30428706

>  <PUBCHEM_MOLECULAR_FORMULA>  (1) 
C38H42N2O6

>  <PUBCHEM_MOLECULAR_WEIGHT>  (1) 
622.7

>  <PUBCHEM_OPENEYE_CAN_SMILES>  (1) 
CN1CCC2=CC(=C3C=C2C1CC4=CC=C(C=C4)OC5=C(C=CC(=C5)CC6C7=C(O3)C(=C(C=C7CCN6C)OC)OC)OC)OC

>  <PUBCHEM_OPENEYE_ISO_SMILES>  (1) 
CN1CCC2=CC(=C3C=C2[C@@H]1CC4=CC=C(C=C4)OC5=C(C=CC(=C5)C[C@H]6C7=C(O3)C(=C(C=C7CCN6C)OC)OC)OC)OC

>  <PUBCHEM_CACTVS_TPSA>  (1) 
61.9

>  <PUBCHEM_MONOISOTOPIC_WEIGHT>  (1) 
622.30428706

>  <PUBCHEM_TOTAL_CHARGE>  (1) 
0

>  <PUBCHEM_HEAVY_ATOM_COUNT>  (1) 
46

>  <PUBCHEM_ATOM_DEF_STEREO_COUNT>  (1) 
2

>  <PUBCHEM_ATOM_UDEF_STEREO_COUNT>  (1) 
0

>  <PUBCHEM_BOND_DEF_STEREO_COUNT>  (1) 
0

>  <PUBCHEM_BOND_UDEF_STEREO_COUNT>  (1) 
0

>  <PUBCHEM_ISOTOPIC_ATOM_COUNT>  (1) 
0

>  <PUBCHEM_COMPONENT_COUNT>  (1) 
1

>  <PUBCHEM_CACTVS_TAUTO_COUNT>  (1) 
-1

>  <PUBCHEM_COORDINATE_TYPE>  (1) 
1
5
255

>  <PUBCHEM_BONDANNOTATIONS>  (1) 
10  48  5
11  13  8
11  21  8
13  24  8
15  18  8
15  22  8
18  27  8
21  28  8
22  25  8
24  31  8
25  32  8
26  33  8
26  34  8
27  32  8
28  31  8
30  35  8
30  36  8
33  37  8
34  38  8
35  40  8
36  41  8
37  42  8
38  42  8
39  40  8
39  41  8
9  47  6

$$$$
