21637732
     RDKit          2D

 30 31  0  0  0  0  0  0  0  0999 V2000
    8.9282    2.4050    0.0000 O   0  0  0  0  0  0  0  0  0  0  0  0
    8.9282    0.4050    0.0000 O   0  0  0  0  0  0  0  0  0  0  0  0
    2.8660   -2.0950    0.0000 O   0  0  0  0  0  0  0  0  0  0  0  0
    4.5981   -5.0950    0.0000 O   0  0  0  0  0  0  0  0  0  0  0  0
    6.3301    0.9050    0.0000 C   0  0  0  0  0  0  0  0  0  0  0  0
    5.4641    0.4050    0.0000 C   0  0  0  0  0  0  0  0  0  0  0  0
    6.3301    1.9050    0.0000 C   0  0  0  0  0  0  0  0  0  0  0  0
    5.4641   -0.5950    0.0000 C   0  0  0  0  0  0  0  0  0  0  0  0
    7.1962    2.4050    0.0000 C   0  0  0  0  0  0  0  0  0  0  0  0
    4.5981   -1.0950    0.0000 C   0  0  0  0  0  0  0  0  0  0  0  0
    5.4641    2.4050    0.0000 C   0  0  0  0  0  0  0  0  0  0  0  0
    7.1962    0.4050    0.0000 C   0  0  0  0  0  0  0  0  0  0  0  0
    7.1962    3.4050    0.0000 C   0  0  0  0  0  0  0  0  0  0  0  0
    8.0622    1.9050    0.0000 C   0  0  0  0  0  0  0  0  0  0  0  0
    8.0622    0.9050    0.0000 C   0  0  0  0  0  0  0  0  0  0  0  0
    4.5981   -2.0950    0.0000 C   0  0  0  0  0  0  0  0  0  0  0  0
    4.5981    1.9050    0.0000 C   0  0  0  0  0  0  0  0  0  0  0  0
    8.0622    3.9050    0.0000 C   0  0  0  0  0  0  0  0  0  0  0  0
    3.7320   -2.5950    0.0000 C   0  0  0  0  0  0  0  0  0  0  0  0
    5.4641   -2.5950    0.0000 C   0  0  0  0  0  0  0  0  0  0  0  0
    3.7320    2.4050    0.0000 C   0  0  0  0  0  0  0  0  0  0  0  0
    8.0622    4.9050    0.0000 C   0  0  0  0  0  0  0  0  0  0  0  0
    3.7320   -3.5950    0.0000 C   0  0  0  0  0  0  0  0  0  0  0  0
    5.4641   -3.5950    0.0000 C   0  0  0  0  0  0  0  0  0  0  0  0
    4.5981   -4.0950    0.0000 C   0  0  0  0  0  0  0  0  0  0  0  0
    2.8660    1.9050    0.0000 C   0  0  0  0  0  0  0  0  0  0  0  0
    3.7320    3.4050    0.0000 C   0  0  0  0  0  0  0  0  0  0  0  0
    8.9282    5.4050    0.0000 C   0  0  0  0  0  0  0  0  0  0  0  0
    7.1962    5.4050    0.0000 C   0  0  0  0  0  0  0  0  0  0  0  0
    2.0000   -2.5950    0.0000 C   0  0  0  0  0  0  0  0  0  0  0  0
  1 14  1  0
  2 15  1  0
  3 19  1  0
  3 30  1  0
  4 25  1  0
  5  6  1  0
  5  7  2  0
  5 12  1  0
  6  8  1  0
  7  9  1  0
  7 11  1  0
  8 10  1  0
  9 13  1  0
  9 14  2  0
 10 16  1  0
 11 17  1  0
 12 15  2  0
 13 18  1  0
 14 15  1  0
 16 19  2  0
 16 20  1  0
 17 21  2  0
 18 22  2  0
 19 23  1  0
 20 24  2  0
 21 26  1  0
 21 27  1  0
 22 28  1  0
 22 29  1  0
 23 25  2  0
 24 25  1  0
M  END
>  <PUBCHEM_COMPOUND_CID>  (1) 
21637732

>  <PUBCHEM_COMPOUND_CANONICALIZED>  (1) 
1

>  <PUBCHEM_CACTVS_COMPLEXITY>  (1) 
561

>  <PUBCHEM_CACTVS_HBOND_ACCEPTOR>  (1) 
4

>  <PUBCHEM_CACTVS_HBOND_DONOR>  (1) 
3

>  <PUBCHEM_CACTVS_ROTATABLE_BOND>  (1) 
9

>  <PUBCHEM_CACTVS_SUBSKEYS>  (1) 
AAADcfB4OAAAAAAAAAAAAAAAAAAAAAAAAAAwYAAAAAAAAAABQAAAGgAACAAADASAmAIyBoAABgCAAiBCAAACCAAgIAAIiAAGiIgNJyKGMRqAcCElwBUJuAeA4PwOoAADCAAYQABAAAYQADCAAAAAAAAAAA==

>  <PUBCHEM_IUPAC_OPENEYE_NAME>  (1) 
5-[3-(4-hydroxy-2-methoxy-phenyl)propyl]-3,4-bis(3-methylbut-2-enyl)benzene-1,2-diol

>  <PUBCHEM_IUPAC_CAS_NAME>  (1) 
5-[3-(4-hydroxy-2-methoxyphenyl)propyl]-3,4-bis(3-methylbut-2-enyl)benzene-1,2-diol

>  <PUBCHEM_IUPAC_NAME_MARKUP>  (1) 
5-[3-(4-hydroxy-2-methoxyphenyl)propyl]-3,4-bis(3-methylbut-2-enyl)benzene-1,2-diol

>  <PUBCHEM_IUPAC_NAME>  (1) 
5-[3-(4-hydroxy-2-methoxyphenyl)propyl]-3,4-bis(3-methylbut-2-enyl)benzene-1,2-diol

>  <PUBCHEM_IUPAC_SYSTEMATIC_NAME>  (1) 
5-[3-(2-methoxy-4-oxidanyl-phenyl)propyl]-3,4-bis(3-methylbut-2-enyl)benzene-1,2-diol

>  <PUBCHEM_IUPAC_TRADITIONAL_NAME>  (1) 
5-[3-(4-hydroxy-2-methoxy-phenyl)propyl]-3,4-bis(3-methylbut-2-enyl)pyrocatechol

>  <PUBCHEM_IUPAC_INCHI>  (1) 
InChI=1S/C26H34O4/c1-17(2)9-13-22-20(15-24(28)26(29)23(22)14-10-18(3)4)8-6-7-19-11-12-21(27)16-25(19)30-5/h9-12,15-16,27-29H,6-8,13-14H2,1-5H3

>  <PUBCHEM_IUPAC_INCHIKEY>  (1) 
BUWRWZUUCOLPSX-UHFFFAOYSA-N

>  <PUBCHEM_XLOGP3_AA>  (1) 
7.4

>  <PUBCHEM_EXACT_MASS>  (1) 
410.24570956

>  <PUBCHEM_MOLECULAR_FORMULA>  (1) 
C26H34O4

>  <PUBCHEM_MOLECULAR_WEIGHT>  (1) 
410.5

>  <PUBCHEM_OPENEYE_CAN_SMILES>  (1) 
CC(=CCC1=C(C(=C(C=C1CCCC2=C(C=C(C=C2)O)OC)O)O)CC=C(C)C)C

>  <PUBCHEM_OPENEYE_ISO_SMILES>  (1) 
CC(=CCC1=C(C(=C(C=C1CCCC2=C(C=C(C=C2)O)OC)O)O)CC=C(C)C)C

>  <PUBCHEM_CACTVS_TPSA>  (1) 
69.9

>  <PUBCHEM_MONOISOTOPIC_WEIGHT>  (1) 
410.24570956

>  <PUBCHEM_TOTAL_CHARGE>  (1) 
0

>  <PUBCHEM_HEAVY_ATOM_COUNT>  (1) 
30

>  <PUBCHEM_ATOM_DEF_STEREO_COUNT>  (1) 
0

>  <PUBCHEM_ATOM_UDEF_STEREO_COUNT>  (1) 
0

>  <PUBCHEM_BOND_DEF_STEREO_COUNT>  (1) 
0

>  <PUBCHEM_BOND_UDEF_STEREO_COUNT>  (1) 
0

>  <PUBCHEM_ISOTOPIC_ATOM_COUNT>  (1) 
0

>  <PUBCHEM_COMPONENT_COUNT>  (1) 
1

>  <PUBCHEM_CACTVS_TAUTO_COUNT>  (1) 
-1

>  <PUBCHEM_COORDINATE_TYPE>  (1) 
1
5
255

>  <PUBCHEM_BONDANNOTATIONS>  (1) 
12  15  8
14  15  8
16  19  8
16  20  8
19  23  8
20  24  8
23  25  8
24  25  8
5  12  8
5  7  8
7  9  8
9  14  8

$$$$
