6483648
     RDKit          2D

 30 32  0  0  1  0  0  0  0  0999 V2000
    4.5981   -0.0019    0.0000 O   0  0  0  0  0  0  0  0  0  0  0  0
    4.7801    1.3774    0.0000 O   0  0  0  0  0  0  0  0  0  0  0  0
    7.4337   -0.8492    0.0000 O   0  0  0  0  0  0  0  0  0  0  0  0
    8.0352    2.5622    0.0000 O   0  0  0  0  0  0  0  0  0  0  0  0
    5.4641   -1.5019    0.0000 C   0  0  0  0  0  0  0  0  0  0  0  0
    6.3301   -2.0019    0.0000 C   0  0  0  0  0  0  0  0  0  0  0  0
    4.5981   -2.0019    0.0000 C   0  0  0  0  0  0  0  0  0  0  0  0
    4.5981   -3.0019    0.0000 C   0  0  0  0  0  0  0  0  0  0  0  0
    6.3301   -3.0019    0.0000 C   0  0  0  0  0  0  0  0  0  0  0  0
    7.3149   -1.8283    0.0000 C   0  0  0  0  0  0  0  0  0  0  0  0
    5.4641   -3.5019    0.0000 C   0  0  0  0  0  0  0  0  0  0  0  0
    3.7320   -1.5019    0.0000 C   0  0  0  0  0  0  0  0  0  0  0  0
    5.4641   -0.5019    0.0000 C   0  0  0  0  0  0  0  0  0  0  0  0
    7.1962   -3.5019    0.0000 C   0  0  0  0  0  0  0  0  0  0  0  0
    7.9577   -2.5943    0.0000 C   0  0  0  0  0  0  0  0  0  0  0  0
    6.1069    0.2641    0.0000 C   0  0  0  0  0  0  0  0  0  0  0  0
    2.8660   -2.0019    0.0000 C   0  0  0  0  0  0  0  0  0  0  0  0
    3.7320   -0.5019    0.0000 C   0  0  0  0  0  0  0  0  0  0  0  0
    8.9425   -2.4207    0.0000 C   0  0  0  0  0  0  0  0  0  0  0  0
    5.7649    1.2038    0.0000 C   0  0  0  0  0  0  0  0  0  0  0  0
    7.0917    0.0905    0.0000 C   0  0  0  0  0  0  0  0  0  0  0  0
    2.0000   -1.5019    0.0000 C   0  0  0  0  0  0  0  0  0  0  0  0
    2.8660   -0.0019    0.0000 C   0  0  0  0  0  0  0  0  0  0  0  0
    2.0000   -0.5019    0.0000 C   0  0  0  0  0  0  0  0  0  0  0  0
    9.5853   -3.1867    0.0000 C   0  0  0  0  0  0  0  0  0  0  0  0
    9.2846   -1.4810    0.0000 C   0  0  0  0  0  0  0  0  0  0  0  0
    6.4077    1.9698    0.0000 C   0  0  0  0  0  0  0  0  0  0  0  0
    7.7345    0.8565    0.0000 C   0  0  0  0  0  0  0  0  0  0  0  0
    7.3925    1.7962    0.0000 C   0  0  0  0  0  0  0  0  0  0  0  0
    7.6932    3.5019    0.0000 C   0  0  0  0  0  0  0  0  0  0  0  0
  1 13  2  0
  2 20  1  0
  3 21  1  0
  4 29  1  0
  4 30  1  0
  5  6  1  0
  5  7  1  0
  5 13  1  6
  6  9  1  0
  6 10  1  6
  7  8  1  0
  7 12  1  1
  8 11  1  0
  9 11  2  0
  9 14  1  0
 10 15  1  0
 12 17  2  0
 12 18  1  0
 13 16  1  0
 15 19  2  0
 16 20  2  0
 16 21  1  0
 17 22  1  0
 18 23  2  0
 19 25  1  0
 19 26  1  0
 20 27  1  0
 21 28  2  0
 22 24  2  0
 23 24  1  0
 27 29  2  0
 28 29  1  0
M  END
>  <PUBCHEM_COMPOUND_CID>  (1) 
6483648

>  <PUBCHEM_COMPOUND_CANONICALIZED>  (1) 
1

>  <PUBCHEM_CACTVS_COMPLEXITY>  (1) 
629

>  <PUBCHEM_CACTVS_HBOND_ACCEPTOR>  (1) 
4

>  <PUBCHEM_CACTVS_HBOND_DONOR>  (1) 
2

>  <PUBCHEM_CACTVS_ROTATABLE_BOND>  (1) 
6

>  <PUBCHEM_CACTVS_SUBSKEYS>  (1) 
AAADceB4OAAAAAAAAAAAAAAAAAAAAAAAAAAwYIAAAAAAAAABQAAAGgAACAAADQSAmAIyBoAABgCIAqBSAAACCAAkIAAIiAEGCMgMJzaGNRqAcWAl4BUIuQeI7PzOoAAACAAIAABAAAAQABAAAAAAAAAAAA==

>  <PUBCHEM_IUPAC_OPENEYE_NAME>  (1) 
(2,6-dihydroxy-4-methoxy-phenyl)-[(1R,2S,6R)-3-methyl-2-(3-methylbut-2-enyl)-6-phenyl-cyclohex-3-en-1-yl]methanone

>  <PUBCHEM_IUPAC_CAS_NAME>  (1) 
(2,6-dihydroxy-4-methoxyphenyl)-[(1R,2S,6R)-3-methyl-2-(3-methylbut-2-enyl)-6-phenyl-1-cyclohex-3-enyl]methanone

>  <PUBCHEM_IUPAC_NAME_MARKUP>  (1) 
(2,6-dihydroxy-4-methoxyphenyl)-[(1<I>R</I>,2<I>S</I>,6<I>R</I>)-3-methyl-2-(3-methylbut-2-enyl)-6-phenylcyclohex-3-en-1-yl]methanone

>  <PUBCHEM_IUPAC_NAME>  (1) 
(2,6-dihydroxy-4-methoxyphenyl)-[(1R,2S,6R)-3-methyl-2-(3-methylbut-2-enyl)-6-phenylcyclohex-3-en-1-yl]methanone

>  <PUBCHEM_IUPAC_SYSTEMATIC_NAME>  (1) 
[4-methoxy-2,6-bis(oxidanyl)phenyl]-[(1R,2S,6R)-3-methyl-2-(3-methylbut-2-enyl)-6-phenyl-cyclohex-3-en-1-yl]methanone

>  <PUBCHEM_IUPAC_TRADITIONAL_NAME>  (1) 
(2,6-dihydroxy-4-methoxy-phenyl)-[(1R,2S,6R)-3-methyl-2-(3-methylbut-2-enyl)-6-phenyl-cyclohex-3-en-1-yl]methanone

>  <PUBCHEM_IUPAC_INCHI>  (1) 
InChI=1S/C26H30O4/c1-16(2)10-12-20-17(3)11-13-21(18-8-6-5-7-9-18)24(20)26(29)25-22(27)14-19(30-4)15-23(25)28/h5-11,14-15,20-21,24,27-28H,12-13H2,1-4H3/t20-,21+,24-/m1/s1

>  <PUBCHEM_IUPAC_INCHIKEY>  (1) 
LYDZCXVWCFJAKQ-ZFGGDYGUSA-N

>  <PUBCHEM_XLOGP3_AA>  (1) 
6

>  <PUBCHEM_EXACT_MASS>  (1) 
406.21440943

>  <PUBCHEM_MOLECULAR_FORMULA>  (1) 
C26H30O4

>  <PUBCHEM_MOLECULAR_WEIGHT>  (1) 
406.5

>  <PUBCHEM_OPENEYE_CAN_SMILES>  (1) 
CC1=CCC(C(C1CC=C(C)C)C(=O)C2=C(C=C(C=C2O)OC)O)C3=CC=CC=C3

>  <PUBCHEM_OPENEYE_ISO_SMILES>  (1) 
CC1=CC[C@H]([C@@H]([C@@H]1CC=C(C)C)C(=O)C2=C(C=C(C=C2O)OC)O)C3=CC=CC=C3

>  <PUBCHEM_CACTVS_TPSA>  (1) 
66.8

>  <PUBCHEM_MONOISOTOPIC_WEIGHT>  (1) 
406.21440943

>  <PUBCHEM_TOTAL_CHARGE>  (1) 
0

>  <PUBCHEM_HEAVY_ATOM_COUNT>  (1) 
30

>  <PUBCHEM_ATOM_DEF_STEREO_COUNT>  (1) 
3

>  <PUBCHEM_ATOM_UDEF_STEREO_COUNT>  (1) 
0

>  <PUBCHEM_BOND_DEF_STEREO_COUNT>  (1) 
0

>  <PUBCHEM_BOND_UDEF_STEREO_COUNT>  (1) 
0

>  <PUBCHEM_ISOTOPIC_ATOM_COUNT>  (1) 
0

>  <PUBCHEM_COMPONENT_COUNT>  (1) 
1

>  <PUBCHEM_CACTVS_TAUTO_COUNT>  (1) 
-1

>  <PUBCHEM_COORDINATE_TYPE>  (1) 
1
5
255

>  <PUBCHEM_BONDANNOTATIONS>  (1) 
12  17  8
12  18  8
16  20  8
16  21  8
17  22  8
18  23  8
20  27  8
21  28  8
22  24  8
23  24  8
27  29  8
28  29  8
5  13  6
6  10  6
7  12  5

$$$$
