5491648
     RDKit          2D

 21 24  0  0  0  0  0  0  0  0999 V2000
    5.9065   -0.6395    0.0000 O   0  0  0  0  0  0  0  0  0  0  0  0
    8.0505    1.4290    0.0000 O   0  0  0  0  0  0  0  0  0  0  0  0
    7.3193   -1.9961    0.0000 O   0  0  0  0  0  0  0  0  0  0  0  0
    6.7634    2.5879    0.0000 O   0  0  0  0  0  0  0  0  0  0  0  0
    2.4170    0.2647    0.0000 O   0  0  0  0  0  0  0  0  0  0  0  0
   10.6901   -0.9152    0.0000 O   0  0  0  0  0  0  0  0  0  0  0  0
    6.4033    0.8937    0.0000 C   0  0  0  0  0  0  0  0  0  0  0  0
    6.7123   -0.0573    0.0000 C   0  0  0  0  0  0  0  0  0  0  0  0
    5.4092    0.8911    0.0000 C   0  0  0  0  0  0  0  0  0  0  0  0
    7.6904   -0.2652    0.0000 C   0  0  0  0  0  0  0  0  0  0  0  0
    5.1028   -0.0545    0.0000 C   0  0  0  0  0  0  0  0  0  0  0  0
    8.3596    0.4779    0.0000 C   0  0  0  0  0  0  0  0  0  0  0  0
    7.0724    1.6369    0.0000 C   0  0  0  0  0  0  0  0  0  0  0  0
    7.9970   -1.2607    0.0000 C   0  0  0  0  0  0  0  0  0  0  0  0
    4.7276    1.6706    0.0000 C   0  0  0  0  0  0  0  0  0  0  0  0
    4.0936   -0.2863    0.0000 C   0  0  0  0  0  0  0  0  0  0  0  0
    9.3816    0.2771    0.0000 C   0  0  0  0  0  0  0  0  0  0  0  0
    9.0142   -1.4852    0.0000 C   0  0  0  0  0  0  0  0  0  0  0  0
    3.7133    1.4623    0.0000 C   0  0  0  0  0  0  0  0  0  0  0  0
    3.3942    0.4772    0.0000 C   0  0  0  0  0  0  0  0  0  0  0  0
    9.7112   -0.7111    0.0000 C   0  0  0  0  0  0  0  0  0  0  0  0
  1  8  1  0
  1 11  1  0
  2 12  1  0
  2 13  1  0
  3 14  1  0
  4 13  2  0
  5 20  1  0
  6 21  1  0
  7  8  2  0
  7  9  1  0
  7 13  1  0
  8 10  1  0
  9 11  2  0
  9 15  1  0
 10 12  2  0
 10 14  1  0
 11 16  1  0
 12 17  1  0
 14 18  2  0
 15 19  2  0
 16 20  2  0
 17 21  2  0
 18 21  1  0
 19 20  1  0
M  END
>  <PUBCHEM_COMPOUND_CID>  (1) 
5491648

>  <PUBCHEM_COMPOUND_CANONICALIZED>  (1) 
1

>  <PUBCHEM_CACTVS_COMPLEXITY>  (1) 
440

>  <PUBCHEM_CACTVS_HBOND_ACCEPTOR>  (1) 
6

>  <PUBCHEM_CACTVS_HBOND_DONOR>  (1) 
3

>  <PUBCHEM_CACTVS_ROTATABLE_BOND>  (1) 
0

>  <PUBCHEM_CACTVS_SUBSKEYS>  (1) 
AAADccBwOAAAAAAAAAAAAAAAAAAAASAAAAA0YIAAAAAAAEiR9AAAGgAACAAADASAmAAwDsAABkCIAqDSCAACCAAkIAAIiAEGCMgMJzaONRqCe2Cl4BUIuYfL7PzOoAAACAAIAABAAAAQABAAAAAAAAAAAA==

>  <PUBCHEM_IUPAC_OPENEYE_NAME>  (1) 
1,3,9-trihydroxybenzofuro[3,2-c]chromen-6-one

>  <PUBCHEM_IUPAC_CAS_NAME>  (1) 
1,3,9-trihydroxy-6-benzofuro[3,2-c][1]benzopyranone

>  <PUBCHEM_IUPAC_NAME_MARKUP>  (1) 
1,3,9-trihydroxy-[1]benzofuro[3,2-c]chromen-6-one

>  <PUBCHEM_IUPAC_NAME>  (1) 
1,3,9-trihydroxy-[1]benzofuro[3,2-c]chromen-6-one

>  <PUBCHEM_IUPAC_SYSTEMATIC_NAME>  (1) 
1,3,9-tris(oxidanyl)-[1]benzofuro[3,2-c]chromen-6-one

>  <PUBCHEM_IUPAC_TRADITIONAL_NAME>  (1) 
1,3,9-trihydroxybenzofuro[3,2-c]chromen-6-one

>  <PUBCHEM_IUPAC_INCHI>  (1) 
InChI=1S/C15H8O6/c16-6-1-2-8-10(4-6)20-14-12(8)15(19)21-11-5-7(17)3-9(18)13(11)14/h1-5,16-18H

>  <PUBCHEM_IUPAC_INCHIKEY>  (1) 
WIRRQLQRDSREEG-UHFFFAOYSA-N

>  <PUBCHEM_XLOGP3_AA>  (1) 
2.4

>  <PUBCHEM_EXACT_MASS>  (1) 
284.03208797

>  <PUBCHEM_MOLECULAR_FORMULA>  (1) 
C15H8O6

>  <PUBCHEM_MOLECULAR_WEIGHT>  (1) 
284.22

>  <PUBCHEM_OPENEYE_CAN_SMILES>  (1) 
C1=CC2=C(C=C1O)OC3=C2C(=O)OC4=CC(=CC(=C43)O)O

>  <PUBCHEM_OPENEYE_ISO_SMILES>  (1) 
C1=CC2=C(C=C1O)OC3=C2C(=O)OC4=CC(=CC(=C43)O)O

>  <PUBCHEM_CACTVS_TPSA>  (1) 
100

>  <PUBCHEM_MONOISOTOPIC_WEIGHT>  (1) 
284.03208797

>  <PUBCHEM_TOTAL_CHARGE>  (1) 
0

>  <PUBCHEM_HEAVY_ATOM_COUNT>  (1) 
21

>  <PUBCHEM_ATOM_DEF_STEREO_COUNT>  (1) 
0

>  <PUBCHEM_ATOM_UDEF_STEREO_COUNT>  (1) 
0

>  <PUBCHEM_BOND_DEF_STEREO_COUNT>  (1) 
0

>  <PUBCHEM_BOND_UDEF_STEREO_COUNT>  (1) 
0

>  <PUBCHEM_ISOTOPIC_ATOM_COUNT>  (1) 
0

>  <PUBCHEM_COMPONENT_COUNT>  (1) 
1

>  <PUBCHEM_CACTVS_TAUTO_COUNT>  (1) 
-1

>  <PUBCHEM_COORDINATE_TYPE>  (1) 
1
5
255

>  <PUBCHEM_BONDANNOTATIONS>  (1) 
1  11  8
1  8  8
10  12  8
10  14  8
11  16  8
12  17  8
14  18  8
15  19  8
16  20  8
17  21  8
18  21  8
19  20  8
2  12  8
2  13  8
7  13  8
7  8  8
7  9  8
8  10  8
9  11  8
9  15  8

$$$$
