10968280
     RDKit          2D

 21 23  0  0  1  0  0  0  0  0999 V2000
    6.3961   -1.5363    0.0000 O   0  0  0  0  0  0  0  0  0  0  0  0
    4.6423    1.4952    0.0000 O   0  0  0  0  0  0  0  0  0  0  0  0
    6.4082    2.5330    0.0000 O   0  0  0  0  0  0  0  0  0  0  0  0
    6.4121    1.5330    0.0000 N   0  0  0  0  0  0  0  0  0  0  0  0
    4.6641   -1.5363    0.0000 C   0  0  0  0  0  0  0  0  0  0  0  0
    4.6641   -0.5363    0.0000 C   0  0  0  0  0  0  0  0  0  0  0  0
    3.7702   -0.0016    0.0000 C   0  0  0  0  0  0  0  0  0  0  0  0
    3.7702   -2.0710    0.0000 C   0  0  0  0  0  0  0  0  0  0  0  0
    2.8641   -1.5571    0.0000 C   0  0  0  0  0  0  0  0  0  0  0  0
    2.8641   -0.5155    0.0000 C   0  0  0  0  0  0  0  0  0  0  0  0
    5.5301   -2.0363    0.0000 C   0  0  0  0  0  0  0  0  0  0  0  0
    5.5301   -0.0363    0.0000 C   0  0  0  0  0  0  0  0  0  0  0  0
    4.6641   -2.5363    0.0000 C   0  0  0  0  0  0  0  0  0  0  0  0
    3.7817    0.9983    0.0000 C   0  0  0  0  0  0  0  0  0  0  0  0
    6.3961   -0.5363    0.0000 C   0  0  0  0  0  0  0  0  0  0  0  0
    2.0000   -2.0604    0.0000 C   0  0  0  0  0  0  0  0  0  0  0  0
    5.5301   -3.0363    0.0000 C   0  0  0  0  0  0  0  0  0  0  0  0
    5.5141    1.0052    0.0000 C   0  0  0  0  0  0  0  0  0  0  0  0
    7.3062   -0.0294    0.0000 C   0  0  0  0  0  0  0  0  0  0  0  0
    7.3142    1.0122    0.0000 C   0  0  0  0  0  0  0  0  0  0  0  0
    7.2723    3.0363    0.0000 C   0  0  0  0  0  0  0  0  0  0  0  0
  1 11  1  0
  1 15  1  0
  2 18  2  0
  3  4  1  0
  3 21  1  0
  4 18  1  0
  4 20  1  0
  5  6  1  0
  5  8  1  0
  5 11  1  0
  5 13  1  1
  6  7  1  0
  6 12  1  1
  7 10  1  0
  7 14  1  6
  8  9  1  0
  9 10  1  0
  9 16  1  6
 11 17  1  1
 12 15  2  0
 12 18  1  0
 15 19  1  0
 19 20  2  0
M  END
>  <PUBCHEM_COMPOUND_CID>  (1) 
10968280

>  <PUBCHEM_COMPOUND_CANONICALIZED>  (1) 
1

>  <PUBCHEM_CACTVS_COMPLEXITY>  (1) 
524

>  <PUBCHEM_CACTVS_HBOND_ACCEPTOR>  (1) 
3

>  <PUBCHEM_CACTVS_HBOND_DONOR>  (1) 
0

>  <PUBCHEM_CACTVS_ROTATABLE_BOND>  (1) 
1

>  <PUBCHEM_CACTVS_SUBSKEYS>  (1) 
AAADceB6MAAAAAAAAAAAAAAAAAAAAAAAAAAwQIAAAAAAAACAAAAAHgAEAAAADxThgAYCAAIQBACIAiFWUACACAAgIgAoCAEIAEgIBBIAoAAGAAAEggAIoQOY3OLPgAAAAAAAAACAAAQAACAAAAAAAAAAAA==

>  <PUBCHEM_IUPAC_OPENEYE_NAME>  (1) 
(6S,6aR,8R,10S,10aR)-2-methoxy-6,6a,8,10-tetramethyl-6,7,8,9,10,10a-hexahydroisochromeno[4,3-c]pyridin-1-one

>  <PUBCHEM_IUPAC_CAS_NAME>  (1) 
(6S,6aR,8R,10S,10aR)-2-methoxy-6,6a,8,10-tetramethyl-6,7,8,9,10,10a-hexahydro[2]benzopyrano[4,3-c]pyridin-1-one

>  <PUBCHEM_IUPAC_NAME_MARKUP>  (1) 
(6<I>S</I>,6<I>a</I><I>R</I>,8<I>R</I>,10<I>S</I>,10<I>a</I><I>R</I>)-2-methoxy-6,6<I>a</I>,8,10-tetramethyl-6,7,8,9,10,10<I>a</I>-hexahydroisochromeno[4,3-c]pyridin-1-one

>  <PUBCHEM_IUPAC_NAME>  (1) 
(6S,6aR,8R,10S,10aR)-2-methoxy-6,6a,8,10-tetramethyl-6,7,8,9,10,10a-hexahydroisochromeno[4,3-c]pyridin-1-one

>  <PUBCHEM_IUPAC_SYSTEMATIC_NAME>  (1) 
(6S,6aR,8R,10S,10aR)-2-methoxy-6,6a,8,10-tetramethyl-6,7,8,9,10,10a-hexahydroisochromeno[4,3-c]pyridin-1-one

>  <PUBCHEM_IUPAC_TRADITIONAL_NAME>  (1) 
(6S,6aR,8R,10S,10aR)-2-methoxy-6,6a,8,10-tetramethyl-6,7,8,9,10,10a-hexahydroisochromeno[4,3-c]pyridin-1-one

>  <PUBCHEM_IUPAC_INCHI>  (1) 
InChI=1S/C17H25NO3/c1-10-8-11(2)15-14-13(6-7-18(20-5)16(14)19)21-12(3)17(15,4)9-10/h6-7,10-12,15H,8-9H2,1-5H3/t10-,11+,12+,15+,17+/m1/s1

>  <PUBCHEM_IUPAC_INCHIKEY>  (1) 
DPARKPYITVXEDI-BYUDVDJISA-N

>  <PUBCHEM_XLOGP3_AA>  (1) 
3.3

>  <PUBCHEM_EXACT_MASS>  (1) 
291.18344366

>  <PUBCHEM_MOLECULAR_FORMULA>  (1) 
C17H25NO3

>  <PUBCHEM_MOLECULAR_WEIGHT>  (1) 
291.4

>  <PUBCHEM_OPENEYE_CAN_SMILES>  (1) 
CC1CC(C2C3=C(C=CN(C3=O)OC)OC(C2(C1)C)C)C

>  <PUBCHEM_OPENEYE_ISO_SMILES>  (1) 
C[C@@H]1C[C@@H]([C@H]2C3=C(C=CN(C3=O)OC)O[C@H]([C@@]2(C1)C)C)C

>  <PUBCHEM_CACTVS_TPSA>  (1) 
38.8

>  <PUBCHEM_MONOISOTOPIC_WEIGHT>  (1) 
291.18344366

>  <PUBCHEM_TOTAL_CHARGE>  (1) 
0

>  <PUBCHEM_HEAVY_ATOM_COUNT>  (1) 
21

>  <PUBCHEM_ATOM_DEF_STEREO_COUNT>  (1) 
5

>  <PUBCHEM_ATOM_UDEF_STEREO_COUNT>  (1) 
0

>  <PUBCHEM_BOND_DEF_STEREO_COUNT>  (1) 
0

>  <PUBCHEM_BOND_UDEF_STEREO_COUNT>  (1) 
0

>  <PUBCHEM_ISOTOPIC_ATOM_COUNT>  (1) 
0

>  <PUBCHEM_COMPONENT_COUNT>  (1) 
1

>  <PUBCHEM_CACTVS_TAUTO_COUNT>  (1) 
-1

>  <PUBCHEM_COORDINATE_TYPE>  (1) 
1
5
255

>  <PUBCHEM_BONDANNOTATIONS>  (1) 
11  17  5
12  15  8
12  18  8
15  19  8
19  20  8
4  18  8
4  20  8
5  13  5
6  22  6
7  14  6
9  16  6

$$$$
