72343
     RDKit          2D

 48 54  0  0  1  0  0  0  0  0999 V2000
    7.2066    1.2758    0.0000 O   0  0  0  0  0  0  0  0  0  0  0  0
   10.6999    3.2906    0.0000 O   0  0  0  0  0  0  0  0  0  0  0  0
    7.7556    3.7303    0.0000 O   0  0  0  0  0  0  0  0  0  0  0  0
    8.9657    4.2918    0.0000 O   0  0  0  0  0  0  0  0  0  0  0  0
    6.6743    3.7214    0.0000 O   0  0  0  0  0  0  0  0  0  0  0  0
    5.9340   -2.9296    0.0000 O   0  0  0  0  0  0  0  0  0  0  0  0
    7.5064   -4.1713    0.0000 O   0  0  0  0  0  0  0  0  0  0  0  0
    9.8338   -0.2166    0.0000 N   0  0  0  0  0  0  0  0  0  0  0  0
    2.8660    1.7770    0.0000 N   0  0  0  0  0  0  0  0  0  0  0  0
    8.9657    0.2846    0.0000 C   0  0  0  0  0  0  0  0  0  0  0  0
    8.9657    1.2870    0.0000 C   0  0  0  0  0  0  0  0  0  0  0  0
    3.7341    1.2758    0.0000 C   0  0  0  0  0  0  0  0  0  0  0  0
    9.8338    1.7882    0.0000 C   0  0  0  0  0  0  0  0  0  0  0  0
   10.7020    0.2846    0.0000 C   0  0  0  0  0  0  0  0  0  0  0  0
   10.7020    1.2870    0.0000 C   0  0  0  0  0  0  0  0  0  0  0  0
    8.0976   -0.2166    0.0000 C   0  0  0  0  0  0  0  0  0  0  0  0
    4.6022    1.7770    0.0000 C   0  0  0  0  0  0  0  0  0  0  0  0
    2.8660    2.7795    0.0000 C   0  0  0  0  0  0  0  0  0  0  0  0
    4.6022    2.7795    0.0000 C   0  0  0  0  0  0  0  0  0  0  0  0
    3.7341    3.2807    0.0000 C   0  0  0  0  0  0  0  0  0  0  0  0
    8.0976    1.7882    0.0000 C   0  0  0  0  0  0  0  0  0  0  0  0
    3.7341    0.2734    0.0000 C   0  0  0  0  0  0  0  0  0  0  0  0
    9.8338    2.7906    0.0000 C   0  0  0  0  0  0  0  0  0  0  0  0
    9.8338   -1.2166    0.0000 C   0  0  0  0  0  0  0  0  0  0  0  0
    5.4704    1.2758    0.0000 C   0  0  0  0  0  0  0  0  0  0  0  0
    7.9431   -1.1983    0.0000 C   0  0  0  0  0  0  0  0  0  0  0  0
    8.0976    2.7906    0.0000 C   0  0  0  0  0  0  0  0  0  0  0  0
    6.3385    1.7770    0.0000 C   0  0  0  0  0  0  0  0  0  0  0  0
    8.9657    3.2918    0.0000 C   0  0  0  0  0  0  0  0  0  0  0  0
    5.4704    3.2807    0.0000 C   0  0  0  0  0  0  0  0  0  0  0  0
    2.0000    1.2770    0.0000 C   0  0  0  0  0  0  0  0  0  0  0  0
    6.3385    2.7795    0.0000 C   0  0  0  0  0  0  0  0  0  0  0  0
    4.2424   -0.5074    0.0000 C   0  0  0  0  0  0  0  0  0  0  0  0
    7.0114   -1.5681    0.0000 C   0  0  0  0  0  0  0  0  0  0  0  0
    8.7292   -1.8204    0.0000 C   0  0  0  0  0  0  0  0  0  0  0  0
    5.2438   -0.4635    0.0000 C   0  0  0  0  0  0  0  0  0  0  0  0
    3.7797   -1.3966    0.0000 C   0  0  0  0  0  0  0  0  0  0  0  0
    6.8657   -2.5598    0.0000 C   0  0  0  0  0  0  0  0  0  0  0  0
    8.5835   -2.8121    0.0000 C   0  0  0  0  0  0  0  0  0  0  0  0
    7.6518   -3.1819    0.0000 C   0  0  0  0  0  0  0  0  0  0  0  0
    5.3198   -2.1981    0.0000 C   0  0  0  0  0  0  0  0  0  0  0  0
    5.7826   -1.3088    0.0000 C   0  0  0  0  0  0  0  0  0  0  0  0
    4.3184   -2.2419    0.0000 C   0  0  0  0  0  0  0  0  0  0  0  0
   10.6999    4.2906    0.0000 C   0  0  0  0  0  0  0  0  0  0  0  0
    8.3984    4.4963    0.0000 C   0  0  0  0  0  0  0  0  0  0  0  0
    9.8318    4.7918    0.0000 C   0  0  0  0  0  0  0  0  0  0  0  0
    6.0264    4.4832    0.0000 C   0  0  0  0  0  0  0  0  0  0  0  0
    8.2906   -4.7918    0.0000 C   0  0  0  0  0  0  0  0  0  0  0  0
  1 21  1  0
  1 28  1  0
  2 23  1  0
  2 44  1  0
  3 27  1  0
  3 45  1  0
  4 29  1  0
  4 46  1  0
  5 32  1  0
  5 47  1  0
  6 38  1  0
  6 41  1  0
  7 40  1  0
  7 48  1  0
 10  8  1  1
  8 14  1  0
  8 24  1  0
 12  9  1  6
  9 18  1  0
  9 31  1  0
 10 11  1  0
 10 16  1  0
 11 13  2  0
 11 21  1  0
 12 17  1  0
 12 22  1  0
 13 15  1  0
 13 23  1  0
 14 15  1  0
 16 26  1  0
 17 19  2  0
 17 25  1  0
 18 20  1  0
 19 20  1  0
 19 30  1  0
 21 27  2  0
 22 33  1  0
 23 29  2  0
 25 28  2  0
 26 34  1  0
 26 35  2  0
 27 29  1  0
 28 32  1  0
 30 32  2  0
 33 36  2  0
 33 37  1  0
 34 38  2  0
 35 39  1  0
 36 42  1  0
 37 43  2  0
 38 40  1  0
 39 40  2  0
 41 42  2  0
 41 43  1  0
M  END
>  <PUBCHEM_COMPOUND_CID>  (1) 
72343

>  <PUBCHEM_COMPOUND_CANONICALIZED>  (1) 
1

>  <PUBCHEM_CACTVS_COMPLEXITY>  (1) 
1030

>  <PUBCHEM_CACTVS_HBOND_ACCEPTOR>  (1) 
9

>  <PUBCHEM_CACTVS_HBOND_DONOR>  (1) 
0

>  <PUBCHEM_CACTVS_ROTATABLE_BOND>  (1) 
5

>  <PUBCHEM_CACTVS_SUBSKEYS>  (1) 
AAADcfB/OAAAAAAAAAAAAAAAAAAAAAAAAAA8eMGCAAAAAACxVAAAHgAAAAAADCzBmAYyBoMABACAAiBCAACCCAAgIAAIiAAOjIgNJyKEsRuGOCrnwBWKqAfw8P8OoQABCAAYQABCAAIQADCAAAAAAAAAAA==

>  <PUBCHEM_IUPAC_OPENEYE_NAME>  (1) 
(1S,14S)-9,19,20,21,25-pentamethoxy-15,30-dimethyl-7,23-dioxa-15,30-diazaheptacyclo[22.6.2.23,6.18,12.114,18.027,31.022,33]hexatriaconta-3(36),4,6(35),8,10,12(34),18(33),19,21,24,26,31-dodecaene

>  <PUBCHEM_IUPAC_CAS_NAME>  (1) 
(1S,14S)-9,19,20,21,25-pentamethoxy-15,30-dimethyl-7,23-dioxa-15,30-diazaheptacyclo[22.6.2.23,6.18,12.114,18.027,31.022,33]hexatriaconta-3(36),4,6(35),8,10,12(34),18(33),19,21,24,26,31-dodecaene

>  <PUBCHEM_IUPAC_NAME_MARKUP>  (1) 
(1<I>S</I>,14<I>S</I>)-9,19,20,21,25-pentamethoxy-15,30-dimethyl-7,23-dioxa-15,30-diazaheptacyclo[22.6.2.2<SUP>3,6</SUP>.1<SUP>8,12</SUP>.1<SUP>14,18</SUP>.0<SUP>27,31</SUP>.0<SUP>22,33</SUP>]hexatriaconta-3(36),4,6(35),8,10,12(34),18(33),19,21,24,26,31-dodecaene

>  <PUBCHEM_IUPAC_NAME>  (1) 
(1S,14S)-9,19,20,21,25-pentamethoxy-15,30-dimethyl-7,23-dioxa-15,30-diazaheptacyclo[22.6.2.23,6.18,12.114,18.027,31.022,33]hexatriaconta-3(36),4,6(35),8,10,12(34),18(33),19,21,24,26,31-dodecaene

>  <PUBCHEM_IUPAC_SYSTEMATIC_NAME>  (1) 
(1S,14S)-9,19,20,21,25-pentamethoxy-15,30-dimethyl-7,23-dioxa-15,30-diazaheptacyclo[22.6.2.23,6.18,12.114,18.027,31.022,33]hexatriaconta-3(36),4,6(35),8,10,12(34),18(33),19,21,24,26,31-dodecaene

>  <PUBCHEM_IUPAC_TRADITIONAL_NAME>  (1) 
(1S,14S)-9,19,20,21,25-pentamethoxy-15,30-dimethyl-7,23-dioxa-15,30-diazaheptacyclo[22.6.2.23,6.18,12.114,18.027,31.022,33]hexatriaconta-3(36),4,6(35),8,10,12(34),18(33),19,21,24,26,31-dodecaene

>  <PUBCHEM_IUPAC_INCHI>  (1) 
InChI=1S/C39H44N2O7/c1-40-16-14-25-21-32(43-4)34-22-28(25)29(40)18-23-8-11-26(12-9-23)47-33-20-24(10-13-31(33)42-3)19-30-35-27(15-17-41(30)2)36(44-5)38(45-6)39(46-7)37(35)48-34/h8-13,20-22,29-30H,14-19H2,1-7H3/t29-,30-/m0/s1

>  <PUBCHEM_IUPAC_INCHIKEY>  (1) 
FUZMQNZACIFDBL-KYJUHHDHSA-N

>  <PUBCHEM_XLOGP3_AA>  (1) 
6.4

>  <PUBCHEM_EXACT_MASS>  (1) 
652.31485175

>  <PUBCHEM_MOLECULAR_FORMULA>  (1) 
C39H44N2O7

>  <PUBCHEM_MOLECULAR_WEIGHT>  (1) 
652.8

>  <PUBCHEM_OPENEYE_CAN_SMILES>  (1) 
CN1CCC2=CC(=C3C=C2C1CC4=CC=C(C=C4)OC5=C(C=CC(=C5)CC6C7=C(CCN6C)C(=C(C(=C7O3)OC)OC)OC)OC)OC

>  <PUBCHEM_OPENEYE_ISO_SMILES>  (1) 
CN1CCC2=CC(=C3C=C2[C@@H]1CC4=CC=C(C=C4)OC5=C(C=CC(=C5)C[C@H]6C7=C(CCN6C)C(=C(C(=C7O3)OC)OC)OC)OC)OC

>  <PUBCHEM_CACTVS_TPSA>  (1) 
71.1

>  <PUBCHEM_MONOISOTOPIC_WEIGHT>  (1) 
652.31485175

>  <PUBCHEM_TOTAL_CHARGE>  (1) 
0

>  <PUBCHEM_HEAVY_ATOM_COUNT>  (1) 
48

>  <PUBCHEM_ATOM_DEF_STEREO_COUNT>  (1) 
2

>  <PUBCHEM_ATOM_UDEF_STEREO_COUNT>  (1) 
0

>  <PUBCHEM_BOND_DEF_STEREO_COUNT>  (1) 
0

>  <PUBCHEM_BOND_UDEF_STEREO_COUNT>  (1) 
0

>  <PUBCHEM_ISOTOPIC_ATOM_COUNT>  (1) 
0

>  <PUBCHEM_COMPONENT_COUNT>  (1) 
1

>  <PUBCHEM_CACTVS_TAUTO_COUNT>  (1) 
-1

>  <PUBCHEM_COORDINATE_TYPE>  (1) 
1
5
255

>  <PUBCHEM_BONDANNOTATIONS>  (1) 
10  49  6
11  13  8
11  21  8
12  50  5
13  23  8
17  19  8
17  25  8
19  30  8
21  27  8
23  29  8
25  28  8
26  34  8
26  35  8
27  29  8
28  32  8
30  32  8
33  36  8
33  37  8
34  38  8
35  39  8
36  42  8
37  43  8
38  40  8
39  40  8
41  42  8
41  43  8

$$$$
