2353
     RDKit          2D

 25 29  0  0  0  0  0  0  0  0999 V2000
   10.8248   -2.1927    0.0000 O   0  0  0  0  0  0  0  0  0  0  0  0
    9.3729   -3.0309    0.0000 O   0  0  0  0  0  0  0  0  0  0  0  0
    4.6874    2.6283    0.0000 O   0  0  0  0  0  0  0  0  0  0  0  0
    2.8680    1.5964    0.0000 O   0  0  0  0  0  0  0  0  0  0  0  0
    7.4070    1.0506    0.0000 N   0  0  0  0  0  0  0  0  0  0  0  0
    8.2730    1.5506    0.0000 C   0  0  0  0  0  0  0  0  0  0  0  0
    9.1390    1.0506    0.0000 C   0  0  0  0  0  0  0  0  0  0  0  0
    7.4070    0.0506    0.0000 C   0  0  0  0  0  0  0  0  0  0  0  0
    9.1390    0.0506    0.0000 C   0  0  0  0  0  0  0  0  0  0  0  0
    8.2730   -0.4494    0.0000 C   0  0  0  0  0  0  0  0  0  0  0  0
    6.5130    1.5853    0.0000 C   0  0  0  0  0  0  0  0  0  0  0  0
    6.5130   -0.4840    0.0000 C   0  0  0  0  0  0  0  0  0  0  0  0
    5.6070    1.0714    0.0000 C   0  0  0  0  0  0  0  0  0  0  0  0
    5.6070    0.0298    0.0000 C   0  0  0  0  0  0  0  0  0  0  0  0
   10.0490   -0.4562    0.0000 C   0  0  0  0  0  0  0  0  0  0  0  0
    8.2570   -1.4909    0.0000 C   0  0  0  0  0  0  0  0  0  0  0  0
   10.0571   -1.4978    0.0000 C   0  0  0  0  0  0  0  0  0  0  0  0
    9.1550   -2.0186    0.0000 C   0  0  0  0  0  0  0  0  0  0  0  0
    4.6758    1.6284    0.0000 C   0  0  0  0  0  0  0  0  0  0  0  0
    4.6758   -0.5271    0.0000 C   0  0  0  0  0  0  0  0  0  0  0  0
    3.7320    1.0931    0.0000 C   0  0  0  0  0  0  0  0  0  0  0  0
   10.4028   -3.1383    0.0000 C   0  0  0  0  0  0  0  0  0  0  0  0
    3.7320    0.0081    0.0000 C   0  0  0  0  0  0  0  0  0  0  0  0
    3.8272    3.1383    0.0000 C   0  0  0  0  0  0  0  0  0  0  0  0
    2.0000    1.0998    0.0000 C   0  0  0  0  0  0  0  0  0  0  0  0
  1 17  1  0
  1 22  1  0
  2 18  1  0
  2 22  1  0
  3 19  1  0
  3 24  1  0
  4 21  1  0
  4 25  1  0
  5  6  1  0
  5  8  2  0
  5 11  1  0
  6  7  1  0
  7  9  1  0
  8 10  1  0
  8 12  1  0
  9 10  2  0
  9 15  1  0
 10 16  1  0
 11 13  2  0
 12 14  2  0
 13 14  1  0
 13 19  1  0
 14 20  1  0
 15 17  2  0
 16 18  2  0
 17 18  1  0
 19 21  2  0
 20 23  2  0
 21 23  1  0
M  CHG  1   5   1
M  END
>  <PUBCHEM_COMPOUND_CID>  (1) 
2353

>  <PUBCHEM_COMPOUND_CANONICALIZED>  (1) 
1

>  <PUBCHEM_CACTVS_COMPLEXITY>  (1) 
488

>  <PUBCHEM_CACTVS_HBOND_ACCEPTOR>  (1) 
4

>  <PUBCHEM_CACTVS_HBOND_DONOR>  (1) 
0

>  <PUBCHEM_CACTVS_ROTATABLE_BOND>  (1) 
2

>  <PUBCHEM_CACTVS_SUBSKEYS>  (1) 
AAADceB6OAAAAAAAAAAAAAAAAAAAASAAAAA8eIEAAAAAAEix9AAAHgAAAAAADAzBngc+jtMMFACgAzRnRACCiCAxIiAI2CA+7JgdJuLEsZukMCpmwBnO6Aew0PMOoAABAAAYQABAAAIAADCAAAAAAAAAAA==

>  <PUBCHEM_IUPAC_OPENEYE_NAME>  (1) 
16,17-dimethoxy-5,7-dioxa-13-azoniapentacyclo[11.8.0.02,10.04,8.015,20]henicosa-1(13),2,4(8),9,14,16,18,20-octaene

>  <PUBCHEM_IUPAC_CAS_NAME>  (1) 
16,17-dimethoxy-5,7-dioxa-13-azoniapentacyclo[11.8.0.02,10.04,8.015,20]heneicosa-1(13),2,4(8),9,14,16,18,20-octaene

>  <PUBCHEM_IUPAC_NAME_MARKUP>  (1) 
16,17-dimethoxy-5,7-dioxa-13-azoniapentacyclo[11.8.0.0<SUP>2,10</SUP>.0<SUP>4,8</SUP>.0<SUP>15,20</SUP>]henicosa-1(13),2,4(8),9,14,16,18,20-octaene

>  <PUBCHEM_IUPAC_NAME>  (1) 
16,17-dimethoxy-5,7-dioxa-13-azoniapentacyclo[11.8.0.02,10.04,8.015,20]henicosa-1(13),2,4(8),9,14,16,18,20-octaene

>  <PUBCHEM_IUPAC_SYSTEMATIC_NAME>  (1) 
16,17-dimethoxy-5,7-dioxa-13-azoniapentacyclo[11.8.0.02,10.04,8.015,20]henicosa-1(13),2,4(8),9,14,16,18,20-octaene

>  <PUBCHEM_IUPAC_TRADITIONAL_NAME>  (1) 
16,17-dimethoxy-5,7-dioxa-13-azoniapentacyclo[11.8.0.02,10.04,8.015,20]heneicosa-1(13),2,4(8),9,14,16,18,20-octaene

>  <PUBCHEM_IUPAC_INCHI>  (1) 
InChI=1S/C20H18NO4/c1-22-17-4-3-12-7-16-14-9-19-18(24-11-25-19)8-13(14)5-6-21(16)10-15(12)20(17)23-2/h3-4,7-10H,5-6,11H2,1-2H3/q+1

>  <PUBCHEM_IUPAC_INCHIKEY>  (1) 
YBHILYKTIRIUTE-UHFFFAOYSA-N

>  <PUBCHEM_XLOGP3_AA>  (1) 
3.6

>  <PUBCHEM_EXACT_MASS>  (1) 
336.12358306

>  <PUBCHEM_MOLECULAR_FORMULA>  (1) 
C20H18NO4+

>  <PUBCHEM_MOLECULAR_WEIGHT>  (1) 
336.4

>  <PUBCHEM_OPENEYE_CAN_SMILES>  (1) 
COC1=C(C2=C[N+]3=C(C=C2C=C1)C4=CC5=C(C=C4CC3)OCO5)OC

>  <PUBCHEM_OPENEYE_ISO_SMILES>  (1) 
COC1=C(C2=C[N+]3=C(C=C2C=C1)C4=CC5=C(C=C4CC3)OCO5)OC

>  <PUBCHEM_CACTVS_TPSA>  (1) 
40.8

>  <PUBCHEM_MONOISOTOPIC_WEIGHT>  (1) 
336.12358306

>  <PUBCHEM_TOTAL_CHARGE>  (1) 
1

>  <PUBCHEM_HEAVY_ATOM_COUNT>  (1) 
25

>  <PUBCHEM_ATOM_DEF_STEREO_COUNT>  (1) 
0

>  <PUBCHEM_ATOM_UDEF_STEREO_COUNT>  (1) 
0

>  <PUBCHEM_BOND_DEF_STEREO_COUNT>  (1) 
0

>  <PUBCHEM_BOND_UDEF_STEREO_COUNT>  (1) 
0

>  <PUBCHEM_ISOTOPIC_ATOM_COUNT>  (1) 
0

>  <PUBCHEM_COMPONENT_COUNT>  (1) 
1

>  <PUBCHEM_CACTVS_TAUTO_COUNT>  (1) 
-1

>  <PUBCHEM_COORDINATE_TYPE>  (1) 
1
5
255

>  <PUBCHEM_BONDANNOTATIONS>  (1) 
10  16  8
11  13  8
12  14  8
13  14  8
13  19  8
14  20  8
15  17  8
16  18  8
17  18  8
19  21  8
20  23  8
21  23  8
5  11  8
5  8  8
8  12  8
9  10  8
9  15  8

$$$$
