47936
     RDKit          2D

 29 31  0  0  1  0  0  0  0  0999 V2000
    4.4094   -0.8604    0.0000 O   0  0  0  0  0  0  0  0  0  0  0  0
    4.9613    1.6140    0.0000 O   0  0  0  0  0  0  0  0  0  0  0  0
    7.9014   -0.8257    0.0000 O   0  0  0  0  0  0  0  0  0  0  0  0
    6.1694   -1.8257    0.0000 O   0  0  0  0  0  0  0  0  0  0  0  0
    5.2816    2.7058    0.0000 O   0  0  0  0  0  0  0  0  0  0  0  0
    3.5492    1.7189    0.0000 O   0  0  0  0  0  0  0  0  0  0  0  0
    7.9014   -1.8257    0.0000 O   0  0  0  0  0  0  0  0  0  0  0  0
    6.1694    1.1743    0.0000 C   0  0  0  0  0  0  0  0  0  0  0  0
    7.0354    0.6743    0.0000 C   0  0  0  0  0  0  0  0  0  0  0  0
    5.3033    0.6743    0.0000 C   0  0  0  0  0  0  0  0  0  0  0  0
    5.3033   -0.3257    0.0000 C   0  0  0  0  0  0  0  0  0  0  0  0
    7.9454    1.1811    0.0000 C   0  0  0  0  0  0  0  0  0  0  0  0
    7.0354   -0.3257    0.0000 C   0  0  0  0  0  0  0  0  0  0  0  0
    6.1533    2.2158    0.0000 C   0  0  0  0  0  0  0  0  0  0  0  0
    6.1694   -0.8257    0.0000 C   0  0  0  0  0  0  0  0  0  0  0  0
    7.9534    2.2227    0.0000 C   0  0  0  0  0  0  0  0  0  0  0  0
    7.0513    2.7436    0.0000 C   0  0  0  0  0  0  0  0  0  0  0  0
    5.5266    1.9403    0.0000 C   0  0  0  0  0  0  0  0  0  0  0  0
    4.4094    1.2090    0.0000 C   0  0  0  0  0  0  0  0  0  0  0  0
    5.3033   -1.3257    0.0000 C   0  0  0  0  0  0  0  0  0  0  0  0
    8.9453    1.1696    0.0000 C   0  0  0  0  0  0  0  0  0  0  0  0
    8.4353    0.3094    0.0000 C   0  0  0  0  0  0  0  0  0  0  0  0
    3.5033   -0.3465    0.0000 C   0  0  0  0  0  0  0  0  0  0  0  0
    3.5033    0.6951    0.0000 C   0  0  0  0  0  0  0  0  0  0  0  0
    3.0067   -1.2145    0.0000 C   0  0  0  0  0  0  0  0  0  0  0  0
    2.5033   -0.3504    0.0000 C   0  0  0  0  0  0  0  0  0  0  0  0
    7.0354   -2.3257    0.0000 C   0  0  0  0  0  0  0  0  0  0  0  0
    2.0000    0.5137    0.0000 C   0  0  0  0  0  0  0  0  0  0  0  0
    7.0354   -3.3257    0.0000 C   0  0  0  0  0  0  0  0  0  0  0  0
  1 11  1  0
  1 23  1  0
 10  2  1  1
 13  3  1  6
 15  4  1  6
  4 27  1  0
 14  5  1  1
  6 19  2  0
  7 27  2  0
  8  9  1  0
  8 10  1  0
  8 14  1  0
  8 18  1  6
  9 12  1  6
  9 13  1  0
 10 11  1  0
 10 19  1  0
 11 15  1  0
 11 20  1  6
 12 16  1  0
 12 21  1  0
 12 22  1  0
 13 15  1  0
 14 17  1  0
 16 17  1  0
 19 24  1  0
 23 24  1  0
 23 25  1  6
 23 26  1  0
 26 28  2  0
 27 29  1  0
M  END
>  <PUBCHEM_COMPOUND_CID>  (1) 
47936

>  <PUBCHEM_COMPOUND_CANONICALIZED>  (1) 
1

>  <PUBCHEM_CACTVS_COMPLEXITY>  (1) 
747

>  <PUBCHEM_CACTVS_HBOND_ACCEPTOR>  (1) 
7

>  <PUBCHEM_CACTVS_HBOND_DONOR>  (1) 
3

>  <PUBCHEM_CACTVS_ROTATABLE_BOND>  (1) 
3

>  <PUBCHEM_CACTVS_SUBSKEYS>  (1) 
AAADcfB4OAAAAAAAAAAAAAAAAAAAAAAAAAA0YIAAAAAAAADQAAAAGgAACAAAD1SggAICCAAABgCIAKDSCAIAAAAgAAAIAAFAAAgBFBYAIAACQAAFoAADIAHK7PzPgAAAAAAAAADCAAYQADCAAAAAAAAAAA==

>  <PUBCHEM_IUPAC_OPENEYE_NAME>  (1) 
[(3R,4aR,5S,6S,6aS,10S,10aR,10bS)-6,10,10b-trihydroxy-3,4a,7,7,10a-pentamethyl-1-oxo-3-vinyl-5,6,6a,8,9,10-hexahydro-2H-benzo[f]chromen-5-yl] acetate

>  <PUBCHEM_IUPAC_CAS_NAME>  (1) 
acetic acid [(3R,4aR,5S,6S,6aS,10S,10aR,10bS)-3-ethenyl-6,10,10b-trihydroxy-3,4a,7,7,10a-pentamethyl-1-oxo-5,6,6a,8,9,10-hexahydro-2H-benzo[f][1]benzopyran-5-yl] ester

>  <PUBCHEM_IUPAC_NAME_MARKUP>  (1) 
[(3<I>R</I>,4<I>a</I><I>R</I>,5<I>S</I>,6<I>S</I>,6<I>a</I><I>S</I>,10<I>S</I>,10<I>a</I><I>R</I>,10<I>b</I><I>S</I>)-3-ethenyl-6,10,10<I>b</I>-trihydroxy-3,4<I>a</I>,7,7,10<I>a</I>-pentamethyl-1-oxo-5,6,6<I>a</I>,8,9,10-hexahydro-2<I>H</I>-benzo[f]chromen-5-yl] acetate

>  <PUBCHEM_IUPAC_NAME>  (1) 
[(3R,4aR,5S,6S,6aS,10S,10aR,10bS)-3-ethenyl-6,10,10b-trihydroxy-3,4a,7,7,10a-pentamethyl-1-oxo-5,6,6a,8,9,10-hexahydro-2H-benzo[f]chromen-5-yl] acetate

>  <PUBCHEM_IUPAC_SYSTEMATIC_NAME>  (1) 
[(3R,4aR,5S,6S,6aS,10S,10aR,10bS)-3-ethenyl-3,4a,7,7,10a-pentamethyl-6,10,10b-tris(oxidanyl)-1-oxidanylidene-5,6,6a,8,9,10-hexahydro-2H-benzo[f]chromen-5-yl] ethanoate

>  <PUBCHEM_IUPAC_TRADITIONAL_NAME>  (1) 
acetic acid [(3R,4aR,5S,6S,6aS,10S,10aR,10bS)-6,10,10b-trihydroxy-1-keto-3,4a,7,7,10a-pentamethyl-3-vinyl-5,6,6a,8,9,10-hexahydro-2H-benzo[f]chromen-5-yl] ester

>  <PUBCHEM_IUPAC_INCHI>  (1) 
InChI=1S/C22H34O7/c1-8-19(5)11-14(25)22(27)20(6)13(24)9-10-18(3,4)16(20)15(26)17(28-12(2)23)21(22,7)29-19/h8,13,15-17,24,26-27H,1,9-11H2,2-7H3/t13-,15-,16-,17-,19-,20-,21+,22-/m0/s1

>  <PUBCHEM_IUPAC_INCHIKEY>  (1) 
OHCQJHSOBUTRHG-KGGHGJDLSA-N

>  <PUBCHEM_XLOGP3_AA>  (1) 
1

>  <PUBCHEM_EXACT_MASS>  (1) 
410.23045342

>  <PUBCHEM_MOLECULAR_FORMULA>  (1) 
C22H34O7

>  <PUBCHEM_MOLECULAR_WEIGHT>  (1) 
410.5

>  <PUBCHEM_OPENEYE_CAN_SMILES>  (1) 
CC(=O)OC1C(C2C(CCC(C2(C3(C1(OC(CC3=O)(C)C=C)C)O)C)O)(C)C)O

>  <PUBCHEM_OPENEYE_ISO_SMILES>  (1) 
CC(=O)O[C@H]1[C@H]([C@@H]2[C@]([C@H](CCC2(C)C)O)([C@@]3([C@@]1(O[C@@](CC3=O)(C)C=C)C)O)C)O

>  <PUBCHEM_CACTVS_TPSA>  (1) 
113

>  <PUBCHEM_MONOISOTOPIC_WEIGHT>  (1) 
410.23045342

>  <PUBCHEM_TOTAL_CHARGE>  (1) 
0

>  <PUBCHEM_HEAVY_ATOM_COUNT>  (1) 
29

>  <PUBCHEM_ATOM_DEF_STEREO_COUNT>  (1) 
8

>  <PUBCHEM_ATOM_UDEF_STEREO_COUNT>  (1) 
0

>  <PUBCHEM_BOND_DEF_STEREO_COUNT>  (1) 
0

>  <PUBCHEM_BOND_UDEF_STEREO_COUNT>  (1) 
0

>  <PUBCHEM_ISOTOPIC_ATOM_COUNT>  (1) 
0

>  <PUBCHEM_COMPONENT_COUNT>  (1) 
1

>  <PUBCHEM_CACTVS_TAUTO_COUNT>  (1) 
2

>  <PUBCHEM_COORDINATE_TYPE>  (1) 
1
5
255

>  <PUBCHEM_BONDANNOTATIONS>  (1) 
11  20  6
10  2  5
23  25  6
13  3  6
15  4  6
14  5  5
8  18  6
9  30  5

$$$$
