54697562
     RDKit          2D

 27 28  0  0  1  0  0  0  0  0999 V2000
    9.7942    4.7500    0.0000 O   0  0  0  0  0  0  0  0  0  0  0  0
    4.5981   -1.2500    0.0000 O   0  0  0  0  0  0  0  0  0  0  0  0
    5.4641    0.2500    0.0000 O   0  0  0  0  0  0  0  0  0  0  0  0
    8.0622   -1.2500    0.0000 O   0  0  0  0  0  0  0  0  0  0  0  0
    2.0000   -4.7500    0.0000 O   0  0  0  0  0  0  0  0  0  0  0  0
    7.1962   -2.7500    0.0000 N   0  0  0  0  0  0  0  0  0  0  0  0
    8.9282    3.2500    0.0000 C   0  0  0  0  0  0  0  0  0  0  0  0
    9.7942    2.7500    0.0000 C   0  0  0  0  0  0  0  0  0  0  0  0
    8.9282    4.2500    0.0000 C   0  0  0  0  0  0  0  0  0  0  0  0
    8.0622    2.7500    0.0000 C   0  0  0  0  0  0  0  0  0  0  0  0
   10.6603    3.2500    0.0000 C   0  0  0  0  0  0  0  0  0  0  0  0
    8.0622    1.7500    0.0000 C   0  0  0  0  0  0  0  0  0  0  0  0
    7.1962    1.2500    0.0000 C   0  0  0  0  0  0  0  0  0  0  0  0
    5.4641   -2.7500    0.0000 C   0  0  0  0  0  0  0  0  0  0  0  0
    8.9282    1.2500    0.0000 C   0  0  0  0  0  0  0  0  0  0  0  0
    6.3301   -1.2500    0.0000 C   0  0  0  0  0  0  0  0  0  0  0  0
    5.4641   -1.7500    0.0000 C   0  0  0  0  0  0  0  0  0  0  0  0
    4.5981   -3.2500    0.0000 C   0  0  0  0  0  0  0  0  0  0  0  0
    7.1962    0.2500    0.0000 C   0  0  0  0  0  0  0  0  0  0  0  0
    6.3301   -0.2500    0.0000 C   0  0  0  0  0  0  0  0  0  0  0  0
    6.3301   -3.2500    0.0000 C   0  0  0  0  0  0  0  0  0  0  0  0
    7.1962   -1.7500    0.0000 C   0  0  0  0  0  0  0  0  0  0  0  0
    4.5981   -4.2500    0.0000 C   0  0  0  0  0  0  0  0  0  0  0  0
    3.7320   -2.7500    0.0000 C   0  0  0  0  0  0  0  0  0  0  0  0
    3.7320   -4.7500    0.0000 C   0  0  0  0  0  0  0  0  0  0  0  0
    2.8660   -3.2500    0.0000 C   0  0  0  0  0  0  0  0  0  0  0  0
    2.8660   -4.2500    0.0000 C   0  0  0  0  0  0  0  0  0  0  0  0
  1  9  1  0
  2 17  1  0
  3 20  2  0
  4 22  2  0
  5 27  1  0
  6 21  1  0
  6 22  1  0
  7  8  1  0
  7  9  1  0
  7 10  1  0
  8 11  1  0
 10 12  2  0
 12 13  1  0
 12 15  1  0
 13 19  2  0
 14 17  1  0
 14 18  1  0
 14 21  2  0
 16 17  2  0
 16 20  1  0
 16 22  1  0
 18 23  2  0
 18 24  1  0
 19 20  1  0
 23 25  1  0
 24 26  2  0
 25 27  2  0
 26 27  1  0
M  END
>  <PUBCHEM_COMPOUND_CID>  (1) 
54697562

>  <PUBCHEM_COMPOUND_CANONICALIZED>  (1) 
1

>  <PUBCHEM_CACTVS_COMPLEXITY>  (1) 
693

>  <PUBCHEM_CACTVS_HBOND_ACCEPTOR>  (1) 
5

>  <PUBCHEM_CACTVS_HBOND_DONOR>  (1) 
4

>  <PUBCHEM_CACTVS_ROTATABLE_BOND>  (1) 
7

>  <PUBCHEM_CACTVS_SUBSKEYS>  (1) 
AAADceB6OAAAAAAAAAAAAAAAAAAAAAAAAAAwQAAAAAAAAAABAAAAHgAQCAAADQThmAYyBoLAAgCIAqFWUACCAAAgIAAIiIEOCMgINjqKkRKEcAAkwhEImYeAwKAOIAAAAAAAAABAAAAAAAAAAAAAAAAAAA==

>  <PUBCHEM_IUPAC_OPENEYE_NAME>  (1) 
4-hydroxy-3-[(2E,4E)-6-(hydroxymethyl)-4-methyl-octa-2,4-dienoyl]-5-(4-hydroxyphenyl)-1H-pyridin-2-one

>  <PUBCHEM_IUPAC_CAS_NAME>  (1) 
4-hydroxy-3-[(2E,4E)-6-(hydroxymethyl)-4-methyl-1-oxoocta-2,4-dienyl]-5-(4-hydroxyphenyl)-1H-pyridin-2-one

>  <PUBCHEM_IUPAC_NAME_MARKUP>  (1) 
4-hydroxy-3-[(2<I>E</I>,4<I>E</I>)-6-(hydroxymethyl)-4-methylocta-2,4-dienoyl]-5-(4-hydroxyphenyl)-1<I>H</I>-pyridin-2-one

>  <PUBCHEM_IUPAC_NAME>  (1) 
4-hydroxy-3-[(2E,4E)-6-(hydroxymethyl)-4-methylocta-2,4-dienoyl]-5-(4-hydroxyphenyl)-1H-pyridin-2-one

>  <PUBCHEM_IUPAC_SYSTEMATIC_NAME>  (1) 
3-[(2E,4E)-6-(hydroxymethyl)-4-methyl-octa-2,4-dienoyl]-5-(4-hydroxyphenyl)-4-oxidanyl-1H-pyridin-2-one

>  <PUBCHEM_IUPAC_TRADITIONAL_NAME>  (1) 
4-hydroxy-5-(4-hydroxyphenyl)-3-[(2E,4E)-4-methyl-6-methylol-octa-2,4-dienoyl]-2-pyridone

>  <PUBCHEM_IUPAC_INCHI>  (1) 
InChI=1S/C21H23NO5/c1-3-14(12-23)10-13(2)4-9-18(25)19-20(26)17(11-22-21(19)27)15-5-7-16(24)8-6-15/h4-11,14,23-24H,3,12H2,1-2H3,(H2,22,26,27)/b9-4+,13-10+

>  <PUBCHEM_IUPAC_INCHIKEY>  (1) 
RZNMCGWGYUMEOL-HTKXOECOSA-N

>  <PUBCHEM_XLOGP3_AA>  (1) 
2.8

>  <PUBCHEM_EXACT_MASS>  (1) 
369.15762283

>  <PUBCHEM_MOLECULAR_FORMULA>  (1) 
C21H23NO5

>  <PUBCHEM_MOLECULAR_WEIGHT>  (1) 
369.4

>  <PUBCHEM_OPENEYE_CAN_SMILES>  (1) 
CCC(CO)C=C(C)C=CC(=O)C1=C(C(=CNC1=O)C2=CC=C(C=C2)O)O

>  <PUBCHEM_OPENEYE_ISO_SMILES>  (1) 
CCC(CO)/C=C(\C)/C=C/C(=O)C1=C(C(=CNC1=O)C2=CC=C(C=C2)O)O

>  <PUBCHEM_CACTVS_TPSA>  (1) 
107

>  <PUBCHEM_MONOISOTOPIC_WEIGHT>  (1) 
369.15762283

>  <PUBCHEM_TOTAL_CHARGE>  (1) 
0

>  <PUBCHEM_HEAVY_ATOM_COUNT>  (1) 
27

>  <PUBCHEM_ATOM_DEF_STEREO_COUNT>  (1) 
0

>  <PUBCHEM_ATOM_UDEF_STEREO_COUNT>  (1) 
1

>  <PUBCHEM_BOND_DEF_STEREO_COUNT>  (1) 
2

>  <PUBCHEM_BOND_UDEF_STEREO_COUNT>  (1) 
0

>  <PUBCHEM_ISOTOPIC_ATOM_COUNT>  (1) 
0

>  <PUBCHEM_COMPONENT_COUNT>  (1) 
1

>  <PUBCHEM_CACTVS_TAUTO_COUNT>  (1) 
-1

>  <PUBCHEM_COORDINATE_TYPE>  (1) 
1
5
255

>  <PUBCHEM_BONDANNOTATIONS>  (1) 
14  17  8
14  21  8
16  17  8
16  22  8
18  23  8
18  24  8
23  25  8
24  26  8
25  27  8
26  27  8
6  21  8
6  22  8
7  8  3

$$$$
