54678424
     RDKit          2D

 33 36  0  0  0  0  0  0  0  0999 V2000
   11.3239   -4.0665    0.0000 O   0  0  0  0  0  0  0  0  0  0  0  0
    7.8319   -4.0319    0.0000 O   0  0  0  0  0  0  0  0  0  0  0  0
    6.2492   -1.6954    0.0000 O   0  0  0  0  0  0  0  0  0  0  0  0
    8.4705   -0.3682    0.0000 O   0  0  0  0  0  0  0  0  0  0  0  0
    6.7105   -3.4167    0.0000 O   0  0  0  0  0  0  0  0  0  0  0  0
    2.3644    0.5022    0.0000 O   0  0  0  0  0  0  0  0  0  0  0  0
   12.2300   -3.5527    0.0000 C   0  0  0  0  0  0  0  0  0  0  0  0
   12.2300   -2.5110    0.0000 C   0  0  0  0  0  0  0  0  0  0  0  0
   11.3239   -1.9972    0.0000 C   0  0  0  0  0  0  0  0  0  0  0  0
   10.4300   -2.5318    0.0000 C   0  0  0  0  0  0  0  0  0  0  0  0
   10.4300   -3.5318    0.0000 C   0  0  0  0  0  0  0  0  0  0  0  0
   13.2300   -3.5565    0.0000 C   0  0  0  0  0  0  0  0  0  0  0  0
   12.7267   -4.4206    0.0000 C   0  0  0  0  0  0  0  0  0  0  0  0
    9.5640   -2.0318    0.0000 C   0  0  0  0  0  0  0  0  0  0  0  0
    9.5640   -4.0319    0.0000 C   0  0  0  0  0  0  0  0  0  0  0  0
    8.6980   -2.5318    0.0000 C   0  0  0  0  0  0  0  0  0  0  0  0
    8.6980   -3.5318    0.0000 C   0  0  0  0  0  0  0  0  0  0  0  0
    7.8319   -2.0318    0.0000 C   0  0  0  0  0  0  0  0  0  0  0  0
    7.7274   -1.0373    0.0000 C   0  0  0  0  0  0  0  0  0  0  0  0
    6.9184   -2.4386    0.0000 C   0  0  0  0  0  0  0  0  0  0  0  0
    6.7492   -0.8294    0.0000 C   0  0  0  0  0  0  0  0  0  0  0  0
    6.3425    0.0841    0.0000 C   0  0  0  0  0  0  0  0  0  0  0  0
    5.3480    0.1887    0.0000 C   0  0  0  0  0  0  0  0  0  0  0  0
    3.9467    1.2067    0.0000 C   0  0  0  0  0  0  0  0  0  0  0  0
    4.9413    1.1022    0.0000 C   0  0  0  0  0  0  0  0  0  0  0  0
    3.5400    2.1203    0.0000 C   0  0  0  0  0  0  0  0  0  0  0  0
    4.7602   -0.6204    0.0000 C   0  0  0  0  0  0  0  0  0  0  0  0
    3.3590    0.3977    0.0000 C   0  0  0  0  0  0  0  0  0  0  0  0
    3.7657   -0.5158    0.0000 C   0  0  0  0  0  0  0  0  0  0  0  0
    4.1278    2.9293    0.0000 C   0  0  0  0  0  0  0  0  0  0  0  0
    3.7210    3.8428    0.0000 C   0  0  0  0  0  0  0  0  0  0  0  0
    4.3088    4.6518    0.0000 C   0  0  0  0  0  0  0  0  0  0  0  0
    2.7265    3.9474    0.0000 C   0  0  0  0  0  0  0  0  0  0  0  0
  1  7  1  0
  1 11  1  0
  2 17  1  0
  3 20  1  0
  3 21  1  0
  4 19  1  0
  5 20  2  0
  6 28  1  0
  7  8  1  0
  7 12  1  0
  7 13  1  0
  8  9  1  0
  9 10  1  0
 10 11  2  0
 10 14  1  0
 11 15  1  0
 14 16  2  0
 15 17  2  0
 16 17  1  0
 16 18  1  0
 18 19  2  0
 18 20  1  0
 19 21  1  0
 21 22  2  0
 22 23  1  0
 23 25  1  0
 23 27  2  0
 24 25  2  0
 24 26  1  0
 24 28  1  0
 26 30  1  0
 27 29  1  0
 28 29  2  0
 30 31  2  0
 31 32  1  0
 31 33  1  0
M  END
>  <PUBCHEM_COMPOUND_CID>  (1) 
54678424

>  <PUBCHEM_COMPOUND_CANONICALIZED>  (1) 
1

>  <PUBCHEM_CACTVS_COMPLEXITY>  (1) 
849

>  <PUBCHEM_CACTVS_HBOND_ACCEPTOR>  (1) 
6

>  <PUBCHEM_CACTVS_HBOND_DONOR>  (1) 
3

>  <PUBCHEM_CACTVS_ROTATABLE_BOND>  (1) 
4

>  <PUBCHEM_CACTVS_SUBSKEYS>  (1) 
AAADceB4OAAAAAAAAAAAAAAAAAAAAQAAAAA0YIAAAAAAAACRQAAAGgAACAAADESAmAAyDoAABgCIAiDSCAACCAAgIAAIiAEGCMgNJzKGNRqCeCClwBULuQfK6PyOIAACCAAIAABAAAQQABAAAAAAAAAAAA==

>  <PUBCHEM_IUPAC_OPENEYE_NAME>  (1) 
(5Z)-4-hydroxy-3-(7-hydroxy-2,2-dimethyl-chroman-6-yl)-5-[[4-hydroxy-3-(3-methylbut-2-enyl)phenyl]methylene]furan-2-one

>  <PUBCHEM_IUPAC_CAS_NAME>  (1) 
(5Z)-4-hydroxy-3-(7-hydroxy-2,2-dimethyl-3,4-dihydro-2H-1-benzopyran-6-yl)-5-[[4-hydroxy-3-(3-methylbut-2-enyl)phenyl]methylidene]-2-furanone

>  <PUBCHEM_IUPAC_NAME_MARKUP>  (1) 
(5<I>Z</I>)-4-hydroxy-3-(7-hydroxy-2,2-dimethyl-3,4-dihydrochromen-6-yl)-5-[[4-hydroxy-3-(3-methylbut-2-enyl)phenyl]methylidene]furan-2-one

>  <PUBCHEM_IUPAC_NAME>  (1) 
(5Z)-4-hydroxy-3-(7-hydroxy-2,2-dimethyl-3,4-dihydrochromen-6-yl)-5-[[4-hydroxy-3-(3-methylbut-2-enyl)phenyl]methylidene]furan-2-one

>  <PUBCHEM_IUPAC_SYSTEMATIC_NAME>  (1) 
(5Z)-3-(2,2-dimethyl-7-oxidanyl-3,4-dihydrochromen-6-yl)-5-[[3-(3-methylbut-2-enyl)-4-oxidanyl-phenyl]methylidene]-4-oxidanyl-furan-2-one

>  <PUBCHEM_IUPAC_TRADITIONAL_NAME>  (1) 
(5Z)-4-hydroxy-3-(7-hydroxy-2,2-dimethyl-chroman-6-yl)-5-[4-hydroxy-3-(3-methylbut-2-enyl)benzylidene]furan-2-one

>  <PUBCHEM_IUPAC_INCHI>  (1) 
InChI=1S/C27H28O6/c1-15(2)5-7-17-11-16(6-8-20(17)28)12-23-25(30)24(26(31)32-23)19-13-18-9-10-27(3,4)33-22(18)14-21(19)29/h5-6,8,11-14,28-30H,7,9-10H2,1-4H3/b23-12-

>  <PUBCHEM_IUPAC_INCHIKEY>  (1) 
WYDYFAZFMGEORI-FMCGGJTJSA-N

>  <PUBCHEM_XLOGP3_AA>  (1) 
5.5

>  <PUBCHEM_EXACT_MASS>  (1) 
448.18858861

>  <PUBCHEM_MOLECULAR_FORMULA>  (1) 
C27H28O6

>  <PUBCHEM_MOLECULAR_WEIGHT>  (1) 
448.5

>  <PUBCHEM_OPENEYE_CAN_SMILES>  (1) 
CC(=CCC1=C(C=CC(=C1)C=C2C(=C(C(=O)O2)C3=C(C=C4C(=C3)CCC(O4)(C)C)O)O)O)C

>  <PUBCHEM_OPENEYE_ISO_SMILES>  (1) 
CC(=CCC1=C(C=CC(=C1)/C=C\2/C(=C(C(=O)O2)C3=C(C=C4C(=C3)CCC(O4)(C)C)O)O)O)C

>  <PUBCHEM_CACTVS_TPSA>  (1) 
96.2

>  <PUBCHEM_MONOISOTOPIC_WEIGHT>  (1) 
448.18858861

>  <PUBCHEM_TOTAL_CHARGE>  (1) 
0

>  <PUBCHEM_HEAVY_ATOM_COUNT>  (1) 
33

>  <PUBCHEM_ATOM_DEF_STEREO_COUNT>  (1) 
0

>  <PUBCHEM_ATOM_UDEF_STEREO_COUNT>  (1) 
0

>  <PUBCHEM_BOND_DEF_STEREO_COUNT>  (1) 
1

>  <PUBCHEM_BOND_UDEF_STEREO_COUNT>  (1) 
0

>  <PUBCHEM_ISOTOPIC_ATOM_COUNT>  (1) 
0

>  <PUBCHEM_COMPONENT_COUNT>  (1) 
1

>  <PUBCHEM_CACTVS_TAUTO_COUNT>  (1) 
-1

>  <PUBCHEM_COORDINATE_TYPE>  (1) 
1
5
255

>  <PUBCHEM_BONDANNOTATIONS>  (1) 
10  11  8
10  14  8
11  15  8
14  16  8
15  17  8
16  17  8
23  25  8
23  27  8
24  25  8
24  28  8
27  29  8
28  29  8

$$$$
