5481958
     RDKit          2D

 31 33  0  0  0  0  0  0  0  0999 V2000
    6.0682   -0.7228    0.0000 O   0  0  0  0  0  0  0  0  0  0  0  0
    4.3198    2.3118    0.0000 O   0  0  0  0  0  0  0  0  0  0  0  0
    6.0682    2.2772    0.0000 O   0  0  0  0  0  0  0  0  0  0  0  0
    2.5381   -0.7469    0.0000 O   0  0  0  0  0  0  0  0  0  0  0  0
    6.9343   -2.2228    0.0000 O   0  0  0  0  0  0  0  0  0  0  0  0
   10.3984   -2.2228    0.0000 O   0  0  0  0  0  0  0  0  0  0  0  0
    5.2022   -0.2228    0.0000 C   0  0  0  0  0  0  0  0  0  0  0  0
    5.2022    0.7772    0.0000 C   0  0  0  0  0  0  0  0  0  0  0  0
    6.9343    0.7772    0.0000 C   0  0  0  0  0  0  0  0  0  0  0  0
    4.3083   -0.7574    0.0000 C   0  0  0  0  0  0  0  0  0  0  0  0
    6.9343   -0.2228    0.0000 C   0  0  0  0  0  0  0  0  0  0  0  0
    6.0682    1.2772    0.0000 C   0  0  0  0  0  0  0  0  0  0  0  0
    7.8003    1.2772    0.0000 C   0  0  0  0  0  0  0  0  0  0  0  0
    4.3198   -1.7574    0.0000 C   0  0  0  0  0  0  0  0  0  0  0  0
    4.3083    1.3119    0.0000 C   0  0  0  0  0  0  0  0  0  0  0  0
    3.4022   -0.2436    0.0000 C   0  0  0  0  0  0  0  0  0  0  0  0
    7.8003   -0.7228    0.0000 C   0  0  0  0  0  0  0  0  0  0  0  0
    3.4022    0.7981    0.0000 C   0  0  0  0  0  0  0  0  0  0  0  0
    7.8003    2.2772    0.0000 C   0  0  0  0  0  0  0  0  0  0  0  0
    3.4597   -2.2673    0.0000 C   0  0  0  0  0  0  0  0  0  0  0  0
    7.8003   -1.7228    0.0000 C   0  0  0  0  0  0  0  0  0  0  0  0
    8.6663   -0.2228    0.0000 C   0  0  0  0  0  0  0  0  0  0  0  0
    8.6663    2.7772    0.0000 C   0  0  0  0  0  0  0  0  0  0  0  0
    3.4712   -3.2673    0.0000 C   0  0  0  0  0  0  0  0  0  0  0  0
    8.6663   -2.2228    0.0000 C   0  0  0  0  0  0  0  0  0  0  0  0
    9.5323   -0.7228    0.0000 C   0  0  0  0  0  0  0  0  0  0  0  0
    9.5323   -1.7228    0.0000 C   0  0  0  0  0  0  0  0  0  0  0  0
    8.6663    3.7772    0.0000 C   0  0  0  0  0  0  0  0  0  0  0  0
    9.5323    2.2772    0.0000 C   0  0  0  0  0  0  0  0  0  0  0  0
    2.6110   -3.7772    0.0000 C   0  0  0  0  0  0  0  0  0  0  0  0
    4.3430   -3.7572    0.0000 C   0  0  0  0  0  0  0  0  0  0  0  0
  1  7  1  0
  1 11  1  0
  2 15  1  0
  3 12  2  0
  4 16  1  0
  5 21  1  0
  6 27  1  0
  7  8  2  0
  7 10  1  0
  8 12  1  0
  8 15  1  0
  9 11  2  0
  9 12  1  0
  9 13  1  0
 10 14  1  0
 10 16  2  0
 11 17  1  0
 13 19  1  0
 14 20  1  0
 15 18  2  0
 16 18  1  0
 17 21  2  0
 17 22  1  0
 19 23  2  0
 20 24  2  0
 21 25  1  0
 22 26  2  0
 23 28  1  0
 23 29  1  0
 24 30  1  0
 24 31  1  0
 25 27  2  0
 26 27  1  0
M  END
>  <PUBCHEM_COMPOUND_CID>  (1) 
5481958

>  <PUBCHEM_COMPOUND_CANONICALIZED>  (1) 
1

>  <PUBCHEM_CACTVS_COMPLEXITY>  (1) 
758

>  <PUBCHEM_CACTVS_HBOND_ACCEPTOR>  (1) 
6

>  <PUBCHEM_CACTVS_HBOND_DONOR>  (1) 
4

>  <PUBCHEM_CACTVS_ROTATABLE_BOND>  (1) 
5

>  <PUBCHEM_CACTVS_SUBSKEYS>  (1) 
AAADceB4OAAAAAAAAAAAAAAAAAAAAAAAAAAwYIAAAAAAAACBQAAAGgAACAAADASAmAAyBoAABgCIAqBSAAACCAAkIAAIiAEGCMgMJzaGNRqCeWCl4BUIuQeI7OzOIAACCAAIAABAAAQQABAAAAAAAAAAAA==

>  <PUBCHEM_IUPAC_OPENEYE_NAME>  (1) 
2-(2,4-dihydroxyphenyl)-5,7-dihydroxy-3,8-bis(3-methylbut-2-enyl)chromen-4-one

>  <PUBCHEM_IUPAC_CAS_NAME>  (1) 
2-(2,4-dihydroxyphenyl)-5,7-dihydroxy-3,8-bis(3-methylbut-2-enyl)-1-benzopyran-4-one

>  <PUBCHEM_IUPAC_NAME_MARKUP>  (1) 
2-(2,4-dihydroxyphenyl)-5,7-dihydroxy-3,8-bis(3-methylbut-2-enyl)chromen-4-one

>  <PUBCHEM_IUPAC_NAME>  (1) 
2-(2,4-dihydroxyphenyl)-5,7-dihydroxy-3,8-bis(3-methylbut-2-enyl)chromen-4-one

>  <PUBCHEM_IUPAC_SYSTEMATIC_NAME>  (1) 
2-[2,4-bis(oxidanyl)phenyl]-3,8-bis(3-methylbut-2-enyl)-5,7-bis(oxidanyl)chromen-4-one

>  <PUBCHEM_IUPAC_TRADITIONAL_NAME>  (1) 
2-(2,4-dihydroxyphenyl)-5,7-dihydroxy-3,8-bis(3-methylbut-2-enyl)chromone

>  <PUBCHEM_IUPAC_INCHI>  (1) 
InChI=1S/C25H26O6/c1-13(2)5-8-17-20(28)12-21(29)22-23(30)18(9-6-14(3)4)24(31-25(17)22)16-10-7-15(26)11-19(16)27/h5-7,10-12,26-29H,8-9H2,1-4H3

>  <PUBCHEM_IUPAC_INCHIKEY>  (1) 
UWQYBLOHTQWSQD-UHFFFAOYSA-N

>  <PUBCHEM_XLOGP3_AA>  (1) 
6.2

>  <PUBCHEM_EXACT_MASS>  (1) 
422.17293854

>  <PUBCHEM_MOLECULAR_FORMULA>  (1) 
C25H26O6

>  <PUBCHEM_MOLECULAR_WEIGHT>  (1) 
422.5

>  <PUBCHEM_OPENEYE_CAN_SMILES>  (1) 
CC(=CCC1=C2C(=C(C=C1O)O)C(=O)C(=C(O2)C3=C(C=C(C=C3)O)O)CC=C(C)C)C

>  <PUBCHEM_OPENEYE_ISO_SMILES>  (1) 
CC(=CCC1=C2C(=C(C=C1O)O)C(=O)C(=C(O2)C3=C(C=C(C=C3)O)O)CC=C(C)C)C

>  <PUBCHEM_CACTVS_TPSA>  (1) 
107

>  <PUBCHEM_MONOISOTOPIC_WEIGHT>  (1) 
422.17293854

>  <PUBCHEM_TOTAL_CHARGE>  (1) 
0

>  <PUBCHEM_HEAVY_ATOM_COUNT>  (1) 
31

>  <PUBCHEM_ATOM_DEF_STEREO_COUNT>  (1) 
0

>  <PUBCHEM_ATOM_UDEF_STEREO_COUNT>  (1) 
0

>  <PUBCHEM_BOND_DEF_STEREO_COUNT>  (1) 
0

>  <PUBCHEM_BOND_UDEF_STEREO_COUNT>  (1) 
0

>  <PUBCHEM_ISOTOPIC_ATOM_COUNT>  (1) 
0

>  <PUBCHEM_COMPONENT_COUNT>  (1) 
1

>  <PUBCHEM_CACTVS_TAUTO_COUNT>  (1) 
-1

>  <PUBCHEM_COORDINATE_TYPE>  (1) 
1
5
255

>  <PUBCHEM_BONDANNOTATIONS>  (1) 
1  11  8
1  7  8
10  16  8
15  18  8
16  18  8
17  21  8
17  22  8
21  25  8
22  26  8
25  27  8
26  27  8
7  10  8
7  8  8
8  12  8
8  15  8
9  11  8
9  12  8

$$$$
