5280961
     RDKit          2D

 20 22  0  0  0  0  0  0  0  0999 V2000
    5.5301   -1.4279    0.0000 O   0  0  0  0  0  0  0  0  0  0  0  0
    3.7817    1.6067    0.0000 O   0  0  0  0  0  0  0  0  0  0  0  0
    5.5301    1.5721    0.0000 O   0  0  0  0  0  0  0  0  0  0  0  0
    2.0000   -1.4521    0.0000 O   0  0  0  0  0  0  0  0  0  0  0  0
    9.8602    2.0721    0.0000 O   0  0  0  0  0  0  0  0  0  0  0  0
    4.6641    0.0721    0.0000 C   0  0  0  0  0  0  0  0  0  0  0  0
    6.3961    0.0721    0.0000 C   0  0  0  0  0  0  0  0  0  0  0  0
    4.6641   -0.9279    0.0000 C   0  0  0  0  0  0  0  0  0  0  0  0
    5.5301    0.5721    0.0000 C   0  0  0  0  0  0  0  0  0  0  0  0
    7.2622    0.5721    0.0000 C   0  0  0  0  0  0  0  0  0  0  0  0
    3.7702    0.6067    0.0000 C   0  0  0  0  0  0  0  0  0  0  0  0
    6.3961   -0.9279    0.0000 C   0  0  0  0  0  0  0  0  0  0  0  0
    3.7702   -1.4626    0.0000 C   0  0  0  0  0  0  0  0  0  0  0  0
    2.8641    0.0929    0.0000 C   0  0  0  0  0  0  0  0  0  0  0  0
    2.8641   -0.9487    0.0000 C   0  0  0  0  0  0  0  0  0  0  0  0
    7.2622    1.5721    0.0000 C   0  0  0  0  0  0  0  0  0  0  0  0
    8.1282    0.0721    0.0000 C   0  0  0  0  0  0  0  0  0  0  0  0
    8.1282    2.0721    0.0000 C   0  0  0  0  0  0  0  0  0  0  0  0
    8.9942    0.5721    0.0000 C   0  0  0  0  0  0  0  0  0  0  0  0
    8.9942    1.5721    0.0000 C   0  0  0  0  0  0  0  0  0  0  0  0
  1  8  1  0
  1 12  1  0
  2 11  1  0
  3  9  2  0
  4 15  1  0
  5 20  1  0
  6  8  2  0
  6  9  1  0
  6 11  1  0
  7  9  1  0
  7 10  1  0
  7 12  2  0
  8 13  1  0
 10 16  2  0
 10 17  1  0
 11 14  2  0
 13 15  2  0
 14 15  1  0
 16 18  1  0
 17 19  2  0
 18 20  2  0
 19 20  1  0
M  END
>  <PUBCHEM_COMPOUND_CID>  (1) 
5280961

>  <PUBCHEM_COMPOUND_CANONICALIZED>  (1) 
1

>  <PUBCHEM_CACTVS_COMPLEXITY>  (1) 
411

>  <PUBCHEM_CACTVS_HBOND_ACCEPTOR>  (1) 
5

>  <PUBCHEM_CACTVS_HBOND_DONOR>  (1) 
3

>  <PUBCHEM_CACTVS_ROTATABLE_BOND>  (1) 
1

>  <PUBCHEM_CACTVS_SUBSKEYS>  (1) 
AAADccBwOAAAAAAAAAAAAAAAAAAAAAAAAAAwYIAAAAAAAACBQAAAGgAACAAADASgmAIwBoAABgCIAqBSAAACCAAkIAAIiAEGCMgMJzaGNRqAcWAl4BUIuYeI7PzOIAAACAAIAABAAAAQABAAAAAAAAAAAA==

>  <PUBCHEM_IUPAC_OPENEYE_NAME>  (1) 
5,7-dihydroxy-3-(4-hydroxyphenyl)chromen-4-one

>  <PUBCHEM_IUPAC_CAS_NAME>  (1) 
5,7-dihydroxy-3-(4-hydroxyphenyl)-1-benzopyran-4-one

>  <PUBCHEM_IUPAC_NAME_MARKUP>  (1) 
5,7-dihydroxy-3-(4-hydroxyphenyl)chromen-4-one

>  <PUBCHEM_IUPAC_NAME>  (1) 
5,7-dihydroxy-3-(4-hydroxyphenyl)chromen-4-one

>  <PUBCHEM_IUPAC_SYSTEMATIC_NAME>  (1) 
3-(4-hydroxyphenyl)-5,7-bis(oxidanyl)chromen-4-one

>  <PUBCHEM_IUPAC_TRADITIONAL_NAME>  (1) 
5,7-dihydroxy-3-(4-hydroxyphenyl)chromone

>  <PUBCHEM_IUPAC_INCHI>  (1) 
InChI=1S/C15H10O5/c16-9-3-1-8(2-4-9)11-7-20-13-6-10(17)5-12(18)14(13)15(11)19/h1-7,16-18H

>  <PUBCHEM_IUPAC_INCHIKEY>  (1) 
TZBJGXHYKVUXJN-UHFFFAOYSA-N

>  <PUBCHEM_XLOGP3_AA>  (1) 
2.7

>  <PUBCHEM_EXACT_MASS>  (1) 
270.05282342

>  <PUBCHEM_MOLECULAR_FORMULA>  (1) 
C15H10O5

>  <PUBCHEM_MOLECULAR_WEIGHT>  (1) 
270.24

>  <PUBCHEM_OPENEYE_CAN_SMILES>  (1) 
C1=CC(=CC=C1C2=COC3=CC(=CC(=C3C2=O)O)O)O

>  <PUBCHEM_OPENEYE_ISO_SMILES>  (1) 
C1=CC(=CC=C1C2=COC3=CC(=CC(=C3C2=O)O)O)O

>  <PUBCHEM_CACTVS_TPSA>  (1) 
87

>  <PUBCHEM_MONOISOTOPIC_WEIGHT>  (1) 
270.05282342

>  <PUBCHEM_TOTAL_CHARGE>  (1) 
0

>  <PUBCHEM_HEAVY_ATOM_COUNT>  (1) 
20

>  <PUBCHEM_ATOM_DEF_STEREO_COUNT>  (1) 
0

>  <PUBCHEM_ATOM_UDEF_STEREO_COUNT>  (1) 
0

>  <PUBCHEM_BOND_DEF_STEREO_COUNT>  (1) 
0

>  <PUBCHEM_BOND_UDEF_STEREO_COUNT>  (1) 
0

>  <PUBCHEM_ISOTOPIC_ATOM_COUNT>  (1) 
0

>  <PUBCHEM_COMPONENT_COUNT>  (1) 
1

>  <PUBCHEM_CACTVS_TAUTO_COUNT>  (1) 
-1

>  <PUBCHEM_COORDINATE_TYPE>  (1) 
1
5
255

>  <PUBCHEM_BONDANNOTATIONS>  (1) 
1  12  8
1  8  8
10  16  8
10  17  8
11  14  8
13  15  8
14  15  8
16  18  8
17  19  8
18  20  8
19  20  8
6  11  8
6  8  8
6  9  8
7  12  8
7  9  8
8  13  8

$$$$
