44257178
     RDKit          2D

 31 34  0  0  1  0  0  0  0  0999 V2000
   10.4263   -0.5520    0.0000 O   0  0  0  0  0  0  0  0  0  0  0  0
   12.1965    1.5068    0.0000 O   0  0  0  0  0  0  0  0  0  0  0  0
    6.0682    0.9827    0.0000 O   0  0  0  0  0  0  0  0  0  0  0  0
   10.4147    2.5173    0.0000 O   0  0  0  0  0  0  0  0  0  0  0  0
    8.6663   -1.5173    0.0000 O   0  0  0  0  0  0  0  0  0  0  0  0
    2.5381    0.9585    0.0000 O   0  0  0  0  0  0  0  0  0  0  0  0
   11.3324   -0.0381    0.0000 C   0  0  0  0  0  0  0  0  0  0  0  0
   11.3324    1.0035    0.0000 C   0  0  0  0  0  0  0  0  0  0  0  0
   10.4263    1.5173    0.0000 C   0  0  0  0  0  0  0  0  0  0  0  0
    9.5323    0.9827    0.0000 C   0  0  0  0  0  0  0  0  0  0  0  0
    9.5323   -0.0173    0.0000 C   0  0  0  0  0  0  0  0  0  0  0  0
    7.8003    0.9827    0.0000 C   0  0  0  0  0  0  0  0  0  0  0  0
    6.9343    1.4827    0.0000 C   0  0  0  0  0  0  0  0  0  0  0  0
    8.6663    1.4827    0.0000 C   0  0  0  0  0  0  0  0  0  0  0  0
    7.8003   -0.0173    0.0000 C   0  0  0  0  0  0  0  0  0  0  0  0
   12.3324   -0.0420    0.0000 C   0  0  0  0  0  0  0  0  0  0  0  0
   11.8290   -0.9061    0.0000 C   0  0  0  0  0  0  0  0  0  0  0  0
    6.9343    2.4827    0.0000 C   0  0  0  0  0  0  0  0  0  0  0  0
    8.6663   -0.5173    0.0000 C   0  0  0  0  0  0  0  0  0  0  0  0
    6.0682    2.9827    0.0000 C   0  0  0  0  0  0  0  0  0  0  0  0
    6.9343   -0.5173    0.0000 C   0  0  0  0  0  0  0  0  0  0  0  0
    5.2022    2.4827    0.0000 C   0  0  0  0  0  0  0  0  0  0  0  0
    5.2022    1.4827    0.0000 C   0  0  0  0  0  0  0  0  0  0  0  0
    6.9343   -1.5173    0.0000 C   0  0  0  0  0  0  0  0  0  0  0  0
    4.3083    3.0173    0.0000 C   0  0  0  0  0  0  0  0  0  0  0  0
    4.3083    0.9480    0.0000 C   0  0  0  0  0  0  0  0  0  0  0  0
    3.4022    2.5035    0.0000 C   0  0  0  0  0  0  0  0  0  0  0  0
    3.4022    1.4619    0.0000 C   0  0  0  0  0  0  0  0  0  0  0  0
    6.0682   -2.0173    0.0000 C   0  0  0  0  0  0  0  0  0  0  0  0
    6.0682   -3.0173    0.0000 C   0  0  0  0  0  0  0  0  0  0  0  0
    5.2022   -1.5173    0.0000 C   0  0  0  0  0  0  0  0  0  0  0  0
  1  7  1  0
  1 11  1  0
  2  8  1  0
  3 13  1  0
  3 23  1  0
  4  9  1  0
  5 19  1  0
  6 28  1  0
  7  8  1  0
  7 16  1  0
  7 17  1  0
  8  9  1  0
  9 10  1  0
 10 11  2  0
 10 14  1  0
 11 19  1  0
 13 12  1  1
 12 14  2  0
 12 15  1  0
 13 18  1  0
 15 19  2  0
 15 21  1  0
 18 20  1  0
 20 22  1  0
 21 24  1  0
 22 23  2  0
 22 25  1  0
 23 26  1  0
 24 29  2  0
 25 27  2  0
 26 28  2  0
 27 28  1  0
 29 30  1  0
 29 31  1  0
M  END
>  <PUBCHEM_COMPOUND_CID>  (1) 
44257178

>  <PUBCHEM_COMPOUND_CANONICALIZED>  (1) 
1

>  <PUBCHEM_CACTVS_COMPLEXITY>  (1) 
658

>  <PUBCHEM_CACTVS_HBOND_ACCEPTOR>  (1) 
6

>  <PUBCHEM_CACTVS_HBOND_DONOR>  (1) 
4

>  <PUBCHEM_CACTVS_ROTATABLE_BOND>  (1) 
3

>  <PUBCHEM_CACTVS_SUBSKEYS>  (1) 
AAADceB4OAAAAAAAAAAAAAAAAAAAAAAAAAA0aIEAAAAAAACRQAAAGgAACAAADFSgmAIyBoAABgCAAiBCAAACCAAgIAAIiAAGiIgNNyKGMRqCeCOlwBULuAfA4PwO4AADCAAYQADAAAYQADCAAAAAAAAAAA==

>  <PUBCHEM_IUPAC_OPENEYE_NAME>  (1) 
6-[(2S)-7-hydroxychroman-2-yl]-2,2-dimethyl-7-(3-methylbut-2-enyl)chromane-3,4,8-triol

>  <PUBCHEM_IUPAC_CAS_NAME>  (1) 
6-[(2S)-7-hydroxy-3,4-dihydro-2H-1-benzopyran-2-yl]-2,2-dimethyl-7-(3-methylbut-2-enyl)-3,4-dihydro-2H-1-benzopyran-3,4,8-triol

>  <PUBCHEM_IUPAC_NAME_MARKUP>  (1) 
6-[(2<I>S</I>)-7-hydroxy-3,4-dihydro-2<I>H</I>-chromen-2-yl]-2,2-dimethyl-7-(3-methylbut-2-enyl)-3,4-dihydrochromene-3,4,8-triol

>  <PUBCHEM_IUPAC_NAME>  (1) 
6-[(2S)-7-hydroxy-3,4-dihydro-2H-chromen-2-yl]-2,2-dimethyl-7-(3-methylbut-2-enyl)-3,4-dihydrochromene-3,4,8-triol

>  <PUBCHEM_IUPAC_SYSTEMATIC_NAME>  (1) 
2,2-dimethyl-7-(3-methylbut-2-enyl)-6-[(2S)-7-oxidanyl-3,4-dihydro-2H-chromen-2-yl]-3,4-dihydrochromene-3,4,8-triol

>  <PUBCHEM_IUPAC_TRADITIONAL_NAME>  (1) 
6-[(2S)-7-hydroxychroman-2-yl]-2,2-dimethyl-7-(3-methylbut-2-enyl)chroman-3,4,8-triol

>  <PUBCHEM_IUPAC_INCHI>  (1) 
InChI=1S/C25H30O6/c1-13(2)5-9-16-17(19-10-7-14-6-8-15(26)11-20(14)30-19)12-18-22(28)24(29)25(3,4)31-23(18)21(16)27/h5-6,8,11-12,19,22,24,26-29H,7,9-10H2,1-4H3/t19-,22?,24?/m0/s1

>  <PUBCHEM_IUPAC_INCHIKEY>  (1) 
YJRPYTOREHMPPM-HRRASNIPSA-N

>  <PUBCHEM_XLOGP3_AA>  (1) 
3.9

>  <PUBCHEM_EXACT_MASS>  (1) 
426.20423867

>  <PUBCHEM_MOLECULAR_FORMULA>  (1) 
C25H30O6

>  <PUBCHEM_MOLECULAR_WEIGHT>  (1) 
426.5

>  <PUBCHEM_OPENEYE_CAN_SMILES>  (1) 
CC(=CCC1=C(C2=C(C=C1C3CCC4=C(O3)C=C(C=C4)O)C(C(C(O2)(C)C)O)O)O)C

>  <PUBCHEM_OPENEYE_ISO_SMILES>  (1) 
CC(=CCC1=C(C2=C(C=C1[C@@H]3CCC4=C(O3)C=C(C=C4)O)C(C(C(O2)(C)C)O)O)O)C

>  <PUBCHEM_CACTVS_TPSA>  (1) 
99.4

>  <PUBCHEM_MONOISOTOPIC_WEIGHT>  (1) 
426.20423867

>  <PUBCHEM_TOTAL_CHARGE>  (1) 
0

>  <PUBCHEM_HEAVY_ATOM_COUNT>  (1) 
31

>  <PUBCHEM_ATOM_DEF_STEREO_COUNT>  (1) 
1

>  <PUBCHEM_ATOM_UDEF_STEREO_COUNT>  (1) 
2

>  <PUBCHEM_BOND_DEF_STEREO_COUNT>  (1) 
0

>  <PUBCHEM_BOND_UDEF_STEREO_COUNT>  (1) 
0

>  <PUBCHEM_ISOTOPIC_ATOM_COUNT>  (1) 
0

>  <PUBCHEM_COMPONENT_COUNT>  (1) 
1

>  <PUBCHEM_CACTVS_TAUTO_COUNT>  (1) 
-1

>  <PUBCHEM_COORDINATE_TYPE>  (1) 
1
5
255

>  <PUBCHEM_BONDANNOTATIONS>  (1) 
10  11  8
10  14  8
11  19  8
12  14  8
12  15  8
13  34  6
15  19  8
8  2  3
22  23  8
22  25  8
23  26  8
25  27  8
26  28  8
27  28  8
9  4  3

$$$$
