10219
     RDKit          2D

 35 39  0  0  1  0  0  0  0  0999 V2000
   10.7664    2.0654    0.0000 O   0  0  0  0  0  0  0  0  0  0  0  0
   12.5403    1.0413    0.0000 O   0  0  0  0  0  0  0  0  0  0  0  0
    2.8698    0.5281    0.0000 O   0  0  0  0  0  0  0  0  0  0  0  0
    2.8544    2.5280    0.0000 O   0  0  0  0  0  0  0  0  0  0  0  0
    9.0223   -2.0038    0.0000 N   0  0  0  0  0  0  0  0  0  0  0  0
    7.2641    1.0411    0.0000 N   0  0  0  0  0  0  0  0  0  0  0  0
    7.2223   -0.9830    0.0000 C   0  0  0  0  0  0  0  0  0  0  0  0
    7.2223   -2.0246    0.0000 C   0  0  0  0  0  0  0  0  0  0  0  0
    9.0223   -1.0038    0.0000 C   0  0  0  0  0  0  0  0  0  0  0  0
    8.1283   -0.4692    0.0000 C   0  0  0  0  0  0  0  0  0  0  0  0
    8.1283   -2.5385    0.0000 C   0  0  0  0  0  0  0  0  0  0  0  0
    6.3582   -0.4797    0.0000 C   0  0  0  0  0  0  0  0  0  0  0  0
    9.8883   -2.5038    0.0000 C   0  0  0  0  0  0  0  0  0  0  0  0
    6.3582   -2.5280    0.0000 C   0  0  0  0  0  0  0  0  0  0  0  0
    9.8883   -0.5038    0.0000 C   0  0  0  0  0  0  0  0  0  0  0  0
    6.3620    0.5203    0.0000 C   0  0  0  0  0  0  0  0  0  0  0  0
   10.7543   -2.0038    0.0000 C   0  0  0  0  0  0  0  0  0  0  0  0
   10.7543   -1.0038    0.0000 C   0  0  0  0  0  0  0  0  0  0  0  0
    5.4640    1.0481    0.0000 C   0  0  0  0  0  0  0  0  0  0  0  0
    6.3620   -3.5280    0.0000 C   0  0  0  0  0  0  0  0  0  0  0  0
    9.8722    0.5377    0.0000 C   0  0  0  0  0  0  0  0  0  0  0  0
    7.2561    2.0827    0.0000 C   0  0  0  0  0  0  0  0  0  0  0  0
   11.6643   -0.4970    0.0000 C   0  0  0  0  0  0  0  0  0  0  0  0
    5.4563    2.0480    0.0000 C   0  0  0  0  0  0  0  0  0  0  0  0
    6.3461    2.5896    0.0000 C   0  0  0  0  0  0  0  0  0  0  0  0
   10.7703    1.0654    0.0000 C   0  0  0  0  0  0  0  0  0  0  0  0
   11.6724    0.5446    0.0000 C   0  0  0  0  0  0  0  0  0  0  0  0
    4.6018    0.5414    0.0000 C   0  0  0  0  0  0  0  0  0  0  0  0
    4.5864    2.5414    0.0000 C   0  0  0  0  0  0  0  0  0  0  0  0
    3.7320    1.0347    0.0000 C   0  0  0  0  0  0  0  0  0  0  0  0
    3.7243    2.0347    0.0000 C   0  0  0  0  0  0  0  0  0  0  0  0
   11.6305    2.5688    0.0000 C   0  0  0  0  0  0  0  0  0  0  0  0
   13.4044    0.5379    0.0000 C   0  0  0  0  0  0  0  0  0  0  0  0
    2.0000    1.0214    0.0000 C   0  0  0  0  0  0  0  0  0  0  0  0
    2.8467    3.5280    0.0000 C   0  0  0  0  0  0  0  0  0  0  0  0
  1 26  1  0
  1 32  1  0
  2 27  1  0
  2 33  1  0
  3 30  1  0
  3 34  1  0
  4 31  1  0
  4 35  1  0
  5  9  1  0
  5 11  1  0
  5 13  1  0
  6 16  1  0
  6 22  1  0
  7  8  1  0
  7 10  1  0
  7 12  1  1
  8 11  1  0
  8 14  1  6
  9 10  1  1
  9 15  1  0
 16 12  1  6
 13 17  1  0
 14 20  1  0
 15 18  2  0
 15 21  1  0
 16 19  1  0
 17 18  1  0
 18 23  1  0
 19 24  2  0
 19 28  1  0
 21 26  2  0
 22 25  1  0
 23 27  2  0
 24 25  1  0
 24 29  1  0
 26 27  1  0
 28 30  2  0
 29 31  2  0
 30 31  1  0
M  END
>  <PUBCHEM_COMPOUND_CID>  (1) 
10219

>  <PUBCHEM_COMPOUND_CANONICALIZED>  (1) 
1

>  <PUBCHEM_CACTVS_COMPLEXITY>  (1) 
679

>  <PUBCHEM_CACTVS_HBOND_ACCEPTOR>  (1) 
6

>  <PUBCHEM_CACTVS_HBOND_DONOR>  (1) 
1

>  <PUBCHEM_CACTVS_ROTATABLE_BOND>  (1) 
7

>  <PUBCHEM_CACTVS_SUBSKEYS>  (1) 
AAADcfB7OAAAAAAAAAAAAAAAAAAAAAAAAAA8eLECAAAAAACxQAAAHgAQAAAADSzBmAYyBoPABACAAiBCAACCCAAgIAAAiIAOjIgNJiKEsRuEMCpk0BGKqAew0PMOoAABAAAQQABAAAIAACCAAAAAAAAAAA==

>  <PUBCHEM_IUPAC_OPENEYE_NAME>  (1) 
(2S,3R,11bS)-2-[[(1R)-6,7-dimethoxy-1,2,3,4-tetrahydroisoquinolin-1-yl]methyl]-3-ethyl-9,10-dimethoxy-2,3,4,6,7,11b-hexahydro-1H-benzo[a]quinolizine

>  <PUBCHEM_IUPAC_CAS_NAME>  (1) 
(2S,3R,11bS)-2-[[(1R)-6,7-dimethoxy-1,2,3,4-tetrahydroisoquinolin-1-yl]methyl]-3-ethyl-9,10-dimethoxy-2,3,4,6,7,11b-hexahydro-1H-benzo[a]quinolizine

>  <PUBCHEM_IUPAC_NAME_MARKUP>  (1) 
(2<I>S</I>,3<I>R</I>,11<I>b</I><I>S</I>)-2-[[(1<I>R</I>)-6,7-dimethoxy-1,2,3,4-tetrahydroisoquinolin-1-yl]methyl]-3-ethyl-9,10-dimethoxy-2,3,4,6,7,11<I>b</I>-hexahydro-1<I>H</I>-benzo[a]quinolizine

>  <PUBCHEM_IUPAC_NAME>  (1) 
(2S,3R,11bS)-2-[[(1R)-6,7-dimethoxy-1,2,3,4-tetrahydroisoquinolin-1-yl]methyl]-3-ethyl-9,10-dimethoxy-2,3,4,6,7,11b-hexahydro-1H-benzo[a]quinolizine

>  <PUBCHEM_IUPAC_SYSTEMATIC_NAME>  (1) 
(2S,3R,11bS)-2-[[(1R)-6,7-dimethoxy-1,2,3,4-tetrahydroisoquinolin-1-yl]methyl]-3-ethyl-9,10-dimethoxy-2,3,4,6,7,11b-hexahydro-1H-benzo[a]quinolizine

>  <PUBCHEM_IUPAC_TRADITIONAL_NAME>  (1) 
(2S,3R,11bS)-2-[[(1R)-6,7-dimethoxy-1,2,3,4-tetrahydroisoquinolin-1-yl]methyl]-3-ethyl-9,10-dimethoxy-2,3,4,6,7,11b-hexahydro-1H-benzo[a]quinolizine

>  <PUBCHEM_IUPAC_INCHI>  (1) 
InChI=1S/C29H40N2O4/c1-6-18-17-31-10-8-20-14-27(33-3)29(35-5)16-23(20)25(31)12-21(18)11-24-22-15-28(34-4)26(32-2)13-19(22)7-9-30-24/h13-16,18,21,24-25,30H,6-12,17H2,1-5H3/t18-,21-,24+,25-/m0/s1

>  <PUBCHEM_IUPAC_INCHIKEY>  (1) 
AUVVAXYIELKVAI-CKBKHPSWSA-N

>  <PUBCHEM_XLOGP3_AA>  (1) 
4.7

>  <PUBCHEM_EXACT_MASS>  (1) 
480.29880776

>  <PUBCHEM_MOLECULAR_FORMULA>  (1) 
C29H40N2O4

>  <PUBCHEM_MOLECULAR_WEIGHT>  (1) 
480.6

>  <PUBCHEM_OPENEYE_CAN_SMILES>  (1) 
CCC1CN2CCC3=CC(=C(C=C3C2CC1CC4C5=CC(=C(C=C5CCN4)OC)OC)OC)OC

>  <PUBCHEM_OPENEYE_ISO_SMILES>  (1) 
CC[C@H]1CN2CCC3=CC(=C(C=C3[C@@H]2C[C@@H]1C[C@@H]4C5=CC(=C(C=C5CCN4)OC)OC)OC)OC

>  <PUBCHEM_CACTVS_TPSA>  (1) 
52.2

>  <PUBCHEM_MONOISOTOPIC_WEIGHT>  (1) 
480.29880776

>  <PUBCHEM_TOTAL_CHARGE>  (1) 
0

>  <PUBCHEM_HEAVY_ATOM_COUNT>  (1) 
35

>  <PUBCHEM_ATOM_DEF_STEREO_COUNT>  (1) 
4

>  <PUBCHEM_ATOM_UDEF_STEREO_COUNT>  (1) 
0

>  <PUBCHEM_BOND_DEF_STEREO_COUNT>  (1) 
0

>  <PUBCHEM_BOND_UDEF_STEREO_COUNT>  (1) 
0

>  <PUBCHEM_ISOTOPIC_ATOM_COUNT>  (1) 
0

>  <PUBCHEM_COMPONENT_COUNT>  (1) 
1

>  <PUBCHEM_CACTVS_TAUTO_COUNT>  (1) 
-1

>  <PUBCHEM_COORDINATE_TYPE>  (1) 
1
5
255

>  <PUBCHEM_BONDANNOTATIONS>  (1) 
16  12  6
15  18  8
15  21  8
18  23  8
19  24  8
19  28  8
21  26  8
23  27  8
24  29  8
26  27  8
28  30  8
29  31  8
30  31  8
7  12  5
8  14  6
9  38  6

$$$$
