11250133
     RDKit          2D

 42 47  0  0  1  0  0  0  0  0999 V2000
    6.7942   -2.0968    0.0000 O   0  0  0  0  0  0  0  0  0  0  0  0
    9.5801    0.6877    0.0000 O   0  0  0  0  0  0  0  0  0  0  0  0
    5.8505    0.3751    0.0000 O   0  0  0  0  0  0  0  0  0  0  0  0
   11.3503    2.7465    0.0000 O   0  0  0  0  0  0  0  0  0  0  0  0
    5.9693    1.3961    0.0000 O   0  0  0  0  0  0  0  0  0  0  0  0
    7.8201    3.7224    0.0000 O   0  0  0  0  0  0  0  0  0  0  0  0
    9.9024   -0.1351    0.0000 O   0  0  0  0  0  0  0  0  0  0  0  0
   10.1030   -3.3268    0.0000 O   0  0  0  0  0  0  0  0  0  0  0  0
    3.4977   -3.5574    0.0000 O   0  0  0  0  0  0  0  0  0  0  0  0
    2.2120   -2.0253    0.0000 O   0  0  0  0  0  0  0  0  0  0  0  0
   12.2066   -1.8051    0.0000 O   0  0  0  0  0  0  0  0  0  0  0  0
   13.9425   -0.8118    0.0000 O   0  0  0  0  0  0  0  0  0  0  0  0
    7.4782   -0.2174    0.0000 C   0  0  0  0  0  0  0  0  0  0  0  0
    6.4933   -0.3910    0.0000 C   0  0  0  0  0  0  0  0  0  0  0  0
    7.8201    0.7224    0.0000 C   0  0  0  0  0  0  0  0  0  0  0  0
    6.1513   -1.3307    0.0000 C   0  0  0  0  0  0  0  0  0  0  0  0
    8.1209   -0.9834    0.0000 C   0  0  0  0  0  0  0  0  0  0  0  0
    8.6862    1.2224    0.0000 C   0  0  0  0  0  0  0  0  0  0  0  0
    8.6862    2.2224    0.0000 C   0  0  0  0  0  0  0  0  0  0  0  0
   10.4862    2.2432    0.0000 C   0  0  0  0  0  0  0  0  0  0  0  0
   10.4862    1.2015    0.0000 C   0  0  0  0  0  0  0  0  0  0  0  0
    9.5801    2.7570    0.0000 C   0  0  0  0  0  0  0  0  0  0  0  0
    7.7789   -1.9231    0.0000 C   0  0  0  0  0  0  0  0  0  0  0  0
    6.9541    1.2224    0.0000 C   0  0  0  0  0  0  0  0  0  0  0  0
    5.1665   -1.5044    0.0000 C   0  0  0  0  0  0  0  0  0  0  0  0
    7.8201    2.7224    0.0000 C   0  0  0  0  0  0  0  0  0  0  0  0
    9.1438   -0.7867    0.0000 C   0  0  0  0  0  0  0  0  0  0  0  0
    6.9541    2.2224    0.0000 C   0  0  0  0  0  0  0  0  0  0  0  0
   11.3503    0.6982    0.0000 C   0  0  0  0  0  0  0  0  0  0  0  0
    8.4360   -2.7312    0.0000 C   0  0  0  0  0  0  0  0  0  0  0  0
    9.8195   -1.5795    0.0000 C   0  0  0  0  0  0  0  0  0  0  0  0
    4.8245   -2.4441    0.0000 C   0  0  0  0  0  0  0  0  0  0  0  0
    9.4632   -2.5583    0.0000 C   0  0  0  0  0  0  0  0  0  0  0  0
    4.5237   -0.7383    0.0000 C   0  0  0  0  0  0  0  0  0  0  0  0
   11.3464   -0.3018    0.0000 C   0  0  0  0  0  0  0  0  0  0  0  0
   12.2182    1.1949    0.0000 C   0  0  0  0  0  0  0  0  0  0  0  0
    3.8397   -2.6177    0.0000 C   0  0  0  0  0  0  0  0  0  0  0  0
    3.5389   -0.9119    0.0000 C   0  0  0  0  0  0  0  0  0  0  0  0
    3.1969   -1.8516    0.0000 C   0  0  0  0  0  0  0  0  0  0  0  0
   12.2105   -0.8051    0.0000 C   0  0  0  0  0  0  0  0  0  0  0  0
   13.0823    0.6915    0.0000 C   0  0  0  0  0  0  0  0  0  0  0  0
   13.0784   -0.3085    0.0000 C   0  0  0  0  0  0  0  0  0  0  0  0
  1 16  1  0
  1 23  1  0
  2 18  1  0
  2 21  1  0
 14  3  1  6
 20  4  1  6
  5 24  1  0
  6 26  1  0
  7 27  1  0
  8 33  1  0
  9 37  1  0
 10 39  1  0
 11 40  1  0
 12 42  1  0
 13 14  1  0
 13 15  1  1
 13 17  1  0
 14 16  1  0
 15 18  1  0
 15 24  2  0
 16 25  1  6
 17 23  2  0
 17 27  1  0
 18 19  2  0
 19 22  1  0
 19 26  1  0
 20 21  1  0
 20 22  1  0
 21 29  1  1
 23 30  1  0
 24 28  1  0
 25 32  2  0
 25 34  1  0
 26 28  2  0
 27 31  2  0
 29 35  2  0
 29 36  1  0
 30 33  2  0
 31 33  1  0
 32 37  1  0
 34 38  2  0
 35 40  1  0
 36 41  2  0
 37 39  2  0
 38 39  1  0
 40 42  2  0
 41 42  1  0
M  END
>  <PUBCHEM_COMPOUND_CID>  (1) 
11250133

>  <PUBCHEM_COMPOUND_CANONICALIZED>  (1) 
1

>  <PUBCHEM_CACTVS_COMPLEXITY>  (1) 
925

>  <PUBCHEM_CACTVS_HBOND_ACCEPTOR>  (1) 
12

>  <PUBCHEM_CACTVS_HBOND_DONOR>  (1) 
10

>  <PUBCHEM_CACTVS_ROTATABLE_BOND>  (1) 
3

>  <PUBCHEM_CACTVS_SUBSKEYS>  (1) 
AAADceB4PAAAAAAAAAAAAAAAAAAAAAAAAAA0aMGCAAAAAACRVAAAGgAACAAADRSgmAIwBoAABgCAAiBCAAACCAAgIAAIiAAGiIgNNyKGMRqCeCGlwBULuAfA4PwOoAADCAAIQABAAAYQABCAAAAAAAAAAA==

>  <PUBCHEM_IUPAC_OPENEYE_NAME>  (1) 
(2R,3S)-2-(3,4-dihydroxyphenyl)-8-[(2R,3R,4R)-2-(3,4-dihydroxyphenyl)-3,5,7-trihydroxy-chroman-4-yl]chromane-3,5,7-triol

>  <PUBCHEM_IUPAC_CAS_NAME>  (1) 
(2R,3S)-2-(3,4-dihydroxyphenyl)-8-[(2R,3R,4R)-2-(3,4-dihydroxyphenyl)-3,5,7-trihydroxy-3,4-dihydro-2H-1-benzopyran-4-yl]-3,4-dihydro-2H-1-benzopyran-3,5,7-triol

>  <PUBCHEM_IUPAC_NAME_MARKUP>  (1) 
(2<I>R</I>,3<I>S</I>)-2-(3,4-dihydroxyphenyl)-8-[(2<I>R</I>,3<I>R</I>,4<I>R</I>)-2-(3,4-dihydroxyphenyl)-3,5,7-trihydroxy-3,4-dihydro-2<I>H</I>-chromen-4-yl]-3,4-dihydro-2<I>H</I>-chromene-3,5,7-triol

>  <PUBCHEM_IUPAC_NAME>  (1) 
(2R,3S)-2-(3,4-dihydroxyphenyl)-8-[(2R,3R,4R)-2-(3,4-dihydroxyphenyl)-3,5,7-trihydroxy-3,4-dihydro-2H-chromen-4-yl]-3,4-dihydro-2H-chromene-3,5,7-triol

>  <PUBCHEM_IUPAC_SYSTEMATIC_NAME>  (1) 
(2R,3S)-2-[3,4-bis(oxidanyl)phenyl]-8-[(2R,3R,4R)-2-[3,4-bis(oxidanyl)phenyl]-3,5,7-tris(oxidanyl)-3,4-dihydro-2H-chromen-4-yl]-3,4-dihydro-2H-chromene-3,5,7-triol

>  <PUBCHEM_IUPAC_TRADITIONAL_NAME>  (1) 
(2R,3S)-2-(3,4-dihydroxyphenyl)-8-[(2R,3R,4R)-2-(3,4-dihydroxyphenyl)-3,5,7-trihydroxy-chroman-4-yl]chroman-3,5,7-triol

>  <PUBCHEM_IUPAC_INCHI>  (1) 
InChI=1S/C30H26O12/c31-13-7-20(37)24-23(8-13)41-29(12-2-4-16(33)19(36)6-12)27(40)26(24)25-21(38)10-17(34)14-9-22(39)28(42-30(14)25)11-1-3-15(32)18(35)5-11/h1-8,10,22,26-29,31-40H,9H2/t22-,26+,27+,28+,29+/m0/s1

>  <PUBCHEM_IUPAC_INCHIKEY>  (1) 
XFZJEEAOWLFHDH-UKWJTHFESA-N

>  <PUBCHEM_XLOGP3_AA>  (1) 
2.4

>  <PUBCHEM_EXACT_MASS>  (1) 
578.14242626

>  <PUBCHEM_MOLECULAR_FORMULA>  (1) 
C30H26O12

>  <PUBCHEM_MOLECULAR_WEIGHT>  (1) 
578.5

>  <PUBCHEM_OPENEYE_CAN_SMILES>  (1) 
C1C(C(OC2=C1C(=CC(=C2C3C(C(OC4=CC(=CC(=C34)O)O)C5=CC(=C(C=C5)O)O)O)O)O)C6=CC(=C(C=C6)O)O)O

>  <PUBCHEM_OPENEYE_ISO_SMILES>  (1) 
C1[C@@H]([C@H](OC2=C1C(=CC(=C2[C@@H]3[C@H]([C@H](OC4=CC(=CC(=C34)O)O)C5=CC(=C(C=C5)O)O)O)O)O)C6=CC(=C(C=C6)O)O)O

>  <PUBCHEM_CACTVS_TPSA>  (1) 
221

>  <PUBCHEM_MONOISOTOPIC_WEIGHT>  (1) 
578.14242626

>  <PUBCHEM_TOTAL_CHARGE>  (1) 
0

>  <PUBCHEM_HEAVY_ATOM_COUNT>  (1) 
42

>  <PUBCHEM_ATOM_DEF_STEREO_COUNT>  (1) 
5

>  <PUBCHEM_ATOM_UDEF_STEREO_COUNT>  (1) 
0

>  <PUBCHEM_BOND_DEF_STEREO_COUNT>  (1) 
0

>  <PUBCHEM_BOND_UDEF_STEREO_COUNT>  (1) 
0

>  <PUBCHEM_ISOTOPIC_ATOM_COUNT>  (1) 
0

>  <PUBCHEM_COMPONENT_COUNT>  (1) 
1

>  <PUBCHEM_CACTVS_TAUTO_COUNT>  (1) 
-1

>  <PUBCHEM_COORDINATE_TYPE>  (1) 
1
5
255

>  <PUBCHEM_BONDANNOTATIONS>  (1) 
13  43  6
15  18  8
15  24  8
16  25  6
17  23  8
17  27  8
18  19  8
19  26  8
21  29  5
23  30  8
24  28  8
25  32  8
25  34  8
26  28  8
27  31  8
29  35  8
29  36  8
14  3  6
30  33  8
31  33  8
32  37  8
34  38  8
35  40  8
36  41  8
37  39  8
38  39  8
20  4  6
40  42  8
41  42  8

$$$$
