184311
     RDKit          2D

 29 30  0  0  0  0  0  0  0  0999 V2000
    8.5991    2.4050    0.0000 O   0  0  0  0  0  0  0  0  0  0  0  0
    8.5991    0.4050    0.0000 O   0  0  0  0  0  0  0  0  0  0  0  0
    2.5369   -2.0950    0.0000 O   0  0  0  0  0  0  0  0  0  0  0  0
    4.2690   -5.0950    0.0000 O   0  0  0  0  0  0  0  0  0  0  0  0
    6.0010    0.9050    0.0000 C   0  0  0  0  0  0  0  0  0  0  0  0
    5.1350    0.4050    0.0000 C   0  0  0  0  0  0  0  0  0  0  0  0
    6.0010    1.9050    0.0000 C   0  0  0  0  0  0  0  0  0  0  0  0
    5.1350   -0.5950    0.0000 C   0  0  0  0  0  0  0  0  0  0  0  0
    6.8671    2.4050    0.0000 C   0  0  0  0  0  0  0  0  0  0  0  0
    5.1350    2.4050    0.0000 C   0  0  0  0  0  0  0  0  0  0  0  0
    4.2690   -1.0950    0.0000 C   0  0  0  0  0  0  0  0  0  0  0  0
    6.8671    0.4050    0.0000 C   0  0  0  0  0  0  0  0  0  0  0  0
    6.8671    3.4050    0.0000 C   0  0  0  0  0  0  0  0  0  0  0  0
    7.7331    1.9050    0.0000 C   0  0  0  0  0  0  0  0  0  0  0  0
    7.7331    0.9050    0.0000 C   0  0  0  0  0  0  0  0  0  0  0  0
    4.2690   -2.0950    0.0000 C   0  0  0  0  0  0  0  0  0  0  0  0
    4.2690    1.9050    0.0000 C   0  0  0  0  0  0  0  0  0  0  0  0
    7.7331    3.9050    0.0000 C   0  0  0  0  0  0  0  0  0  0  0  0
    3.4030   -2.5950    0.0000 C   0  0  0  0  0  0  0  0  0  0  0  0
    3.4030    2.4050    0.0000 C   0  0  0  0  0  0  0  0  0  0  0  0
    5.1350   -2.5950    0.0000 C   0  0  0  0  0  0  0  0  0  0  0  0
    7.7331    4.9050    0.0000 C   0  0  0  0  0  0  0  0  0  0  0  0
    3.4030   -3.5950    0.0000 C   0  0  0  0  0  0  0  0  0  0  0  0
    5.1350   -3.5950    0.0000 C   0  0  0  0  0  0  0  0  0  0  0  0
    4.2690   -4.0950    0.0000 C   0  0  0  0  0  0  0  0  0  0  0  0
    2.5369    1.9050    0.0000 C   0  0  0  0  0  0  0  0  0  0  0  0
    3.4030    3.4050    0.0000 C   0  0  0  0  0  0  0  0  0  0  0  0
    8.5991    5.4050    0.0000 C   0  0  0  0  0  0  0  0  0  0  0  0
    6.8671    5.4050    0.0000 C   0  0  0  0  0  0  0  0  0  0  0  0
  1 14  1  0
  2 15  1  0
  3 19  1  0
  4 25  1  0
  5  6  1  0
  5  7  2  0
  5 12  1  0
  6  8  1  0
  7  9  1  0
  7 10  1  0
  8 11  1  0
  9 13  1  0
  9 14  2  0
 10 17  1  0
 11 16  1  0
 12 15  2  0
 13 18  1  0
 14 15  1  0
 16 19  2  0
 16 21  1  0
 17 20  2  0
 18 22  2  0
 19 23  1  0
 20 26  1  0
 20 27  1  0
 21 24  2  0
 22 28  1  0
 22 29  1  0
 23 25  2  0
 24 25  1  0
M  END
>  <PUBCHEM_COMPOUND_CID>  (1) 
184311

>  <PUBCHEM_COMPOUND_CANONICALIZED>  (1) 
1

>  <PUBCHEM_CACTVS_COMPLEXITY>  (1) 
547

>  <PUBCHEM_CACTVS_HBOND_ACCEPTOR>  (1) 
4

>  <PUBCHEM_CACTVS_HBOND_DONOR>  (1) 
4

>  <PUBCHEM_CACTVS_ROTATABLE_BOND>  (1) 
8

>  <PUBCHEM_CACTVS_SUBSKEYS>  (1) 
AAADcfB4OAAAAAAAAAAAAAAAAAAAAAAAAAAwYAAAAAAAAAABQAAAGgAACAAADASAmAAyBoAAAgCAAiBCAAACAAAgIAAIiAAGiIgJJyKCERKAcAElwBUJmAeA4PQOoAADCAAYQABAAAYQADCAAAAAAAAAAA==

>  <PUBCHEM_IUPAC_OPENEYE_NAME>  (1) 
5-[3-(2,4-dihydroxyphenyl)propyl]-3,4-bis(3-methylbut-2-enyl)benzene-1,2-diol

>  <PUBCHEM_IUPAC_CAS_NAME>  (1) 
5-[3-(2,4-dihydroxyphenyl)propyl]-3,4-bis(3-methylbut-2-enyl)benzene-1,2-diol

>  <PUBCHEM_IUPAC_NAME_MARKUP>  (1) 
5-[3-(2,4-dihydroxyphenyl)propyl]-3,4-bis(3-methylbut-2-enyl)benzene-1,2-diol

>  <PUBCHEM_IUPAC_NAME>  (1) 
5-[3-(2,4-dihydroxyphenyl)propyl]-3,4-bis(3-methylbut-2-enyl)benzene-1,2-diol

>  <PUBCHEM_IUPAC_SYSTEMATIC_NAME>  (1) 
5-[3-[2,4-bis(oxidanyl)phenyl]propyl]-3,4-bis(3-methylbut-2-enyl)benzene-1,2-diol

>  <PUBCHEM_IUPAC_TRADITIONAL_NAME>  (1) 
5-[3-(2,4-dihydroxyphenyl)propyl]-3,4-bis(3-methylbut-2-enyl)pyrocatechol

>  <PUBCHEM_IUPAC_INCHI>  (1) 
InChI=1S/C25H32O4/c1-16(2)8-12-21-19(7-5-6-18-10-11-20(26)15-23(18)27)14-24(28)25(29)22(21)13-9-17(3)4/h8-11,14-15,26-29H,5-7,12-13H2,1-4H3

>  <PUBCHEM_IUPAC_INCHIKEY>  (1) 
PNQQDEFGJPUAGZ-UHFFFAOYSA-N

>  <PUBCHEM_XLOGP3_AA>  (1) 
7.1

>  <PUBCHEM_EXACT_MASS>  (1) 
396.23005950

>  <PUBCHEM_MOLECULAR_FORMULA>  (1) 
C25H32O4

>  <PUBCHEM_MOLECULAR_WEIGHT>  (1) 
396.5

>  <PUBCHEM_OPENEYE_CAN_SMILES>  (1) 
CC(=CCC1=C(C(=C(C=C1CCCC2=C(C=C(C=C2)O)O)O)O)CC=C(C)C)C

>  <PUBCHEM_OPENEYE_ISO_SMILES>  (1) 
CC(=CCC1=C(C(=C(C=C1CCCC2=C(C=C(C=C2)O)O)O)O)CC=C(C)C)C

>  <PUBCHEM_CACTVS_TPSA>  (1) 
80.9

>  <PUBCHEM_MONOISOTOPIC_WEIGHT>  (1) 
396.23005950

>  <PUBCHEM_TOTAL_CHARGE>  (1) 
0

>  <PUBCHEM_HEAVY_ATOM_COUNT>  (1) 
29

>  <PUBCHEM_ATOM_DEF_STEREO_COUNT>  (1) 
0

>  <PUBCHEM_ATOM_UDEF_STEREO_COUNT>  (1) 
0

>  <PUBCHEM_BOND_DEF_STEREO_COUNT>  (1) 
0

>  <PUBCHEM_BOND_UDEF_STEREO_COUNT>  (1) 
0

>  <PUBCHEM_ISOTOPIC_ATOM_COUNT>  (1) 
0

>  <PUBCHEM_COMPONENT_COUNT>  (1) 
1

>  <PUBCHEM_CACTVS_TAUTO_COUNT>  (1) 
-1

>  <PUBCHEM_COORDINATE_TYPE>  (1) 
1
5
255

>  <PUBCHEM_BONDANNOTATIONS>  (1) 
12  15  8
14  15  8
16  19  8
16  21  8
19  23  8
21  24  8
23  25  8
24  25  8
5  12  8
5  7  8
7  9  8
9  14  8

$$$$
