5281847
     RDKit          2D

 38 41  0  0  0  0  0  0  0  0999 V2000
    9.3900   -0.6081    0.0000 O   0  0  0  0  0  0  0  0  0  0  0  0
    8.2728    2.1926    0.0000 O   0  0  0  0  0  0  0  0  0  0  0  0
    5.8980   -0.5734    0.0000 O   0  0  0  0  0  0  0  0  0  0  0  0
    6.5820    3.3060    0.0000 O   0  0  0  0  0  0  0  0  0  0  0  0
    3.9284    1.0793    0.0000 O   0  0  0  0  0  0  0  0  0  0  0  0
    8.4960   -2.0734    0.0000 O   0  0  0  0  0  0  0  0  0  0  0  0
    3.3268    4.4908    0.0000 O   0  0  0  0  0  0  0  0  0  0  0  0
    2.3008    1.6717    0.0000 O   0  0  0  0  0  0  0  0  0  0  0  0
   10.2961   -0.0942    0.0000 C   0  0  0  0  0  0  0  0  0  0  0  0
    8.4960   -0.0734    0.0000 C   0  0  0  0  0  0  0  0  0  0  0  0
    8.4960    0.9266    0.0000 C   0  0  0  0  0  0  0  0  0  0  0  0
    6.7640    0.9266    0.0000 C   0  0  0  0  0  0  0  0  0  0  0  0
    5.8980    1.4266    0.0000 C   0  0  0  0  0  0  0  0  0  0  0  0
    7.6300    1.4266    0.0000 C   0  0  0  0  0  0  0  0  0  0  0  0
   10.2961    0.9474    0.0000 C   0  0  0  0  0  0  0  0  0  0  0  0
    7.6300   -0.5734    0.0000 C   0  0  0  0  0  0  0  0  0  0  0  0
    6.7640   -0.0734    0.0000 C   0  0  0  0  0  0  0  0  0  0  0  0
    9.3900    1.4613    0.0000 C   0  0  0  0  0  0  0  0  0  0  0  0
   11.2961   -0.0981    0.0000 C   0  0  0  0  0  0  0  0  0  0  0  0
   10.7927   -0.9622    0.0000 C   0  0  0  0  0  0  0  0  0  0  0  0
    5.2552    2.1926    0.0000 C   0  0  0  0  0  0  0  0  0  0  0  0
    5.5972    3.1323    0.0000 C   0  0  0  0  0  0  0  0  0  0  0  0
    4.2704    2.0190    0.0000 C   0  0  0  0  0  0  0  0  0  0  0  0
    7.6300   -1.5734    0.0000 C   0  0  0  0  0  0  0  0  0  0  0  0
    4.9544    3.8984    0.0000 C   0  0  0  0  0  0  0  0  0  0  0  0
    3.6276    2.7850    0.0000 C   0  0  0  0  0  0  0  0  0  0  0  0
    3.9696    3.7247    0.0000 C   0  0  0  0  0  0  0  0  0  0  0  0
    5.2964    4.8381    0.0000 C   0  0  0  0  0  0  0  0  0  0  0  0
    6.7640   -2.0734    0.0000 C   0  0  0  0  0  0  0  0  0  0  0  0
    2.6428    2.6114    0.0000 C   0  0  0  0  0  0  0  0  0  0  0  0
    6.7640   -3.0734    0.0000 C   0  0  0  0  0  0  0  0  0  0  0  0
    2.0000    3.3774    0.0000 C   0  0  0  0  0  0  0  0  0  0  0  0
    5.8980   -3.5734    0.0000 C   0  0  0  0  0  0  0  0  0  0  0  0
    5.0320   -3.0734    0.0000 C   0  0  0  0  0  0  0  0  0  0  0  0
    5.8980   -4.5734    0.0000 C   0  0  0  0  0  0  0  0  0  0  0  0
    4.1659   -3.5734    0.0000 C   0  0  0  0  0  0  0  0  0  0  0  0
    5.0320   -5.0734    0.0000 C   0  0  0  0  0  0  0  0  0  0  0  0
    4.1659   -4.5734    0.0000 C   0  0  0  0  0  0  0  0  0  0  0  0
  1  9  1  0
  1 10  1  0
  2 14  1  0
  3 17  1  0
  4 22  1  0
  5 23  1  0
  6 24  2  0
  7 27  1  0
  8 30  2  0
  9 15  1  0
  9 19  1  0
  9 20  1  0
 10 11  2  0
 10 16  1  0
 11 14  1  0
 11 18  1  0
 12 13  1  0
 12 14  2  0
 12 17  1  0
 13 21  1  0
 15 18  2  0
 16 17  2  0
 16 24  1  0
 21 22  2  0
 21 23  1  0
 22 25  1  0
 23 26  2  0
 24 29  1  0
 25 27  2  0
 25 28  1  0
 26 27  1  0
 26 30  1  0
 29 31  2  0
 30 32  1  0
 31 33  1  0
 33 34  2  0
 33 35  1  0
 34 36  1  0
 35 37  2  0
 36 38  2  0
 37 38  1  0
M  END
>  <PUBCHEM_COMPOUND_CID>  (1) 
5281847

>  <PUBCHEM_COMPOUND_CANONICALIZED>  (1) 
1

>  <PUBCHEM_CACTVS_COMPLEXITY>  (1) 
921

>  <PUBCHEM_CACTVS_HBOND_ACCEPTOR>  (1) 
8

>  <PUBCHEM_CACTVS_HBOND_DONOR>  (1) 
5

>  <PUBCHEM_CACTVS_ROTATABLE_BOND>  (1) 
6

>  <PUBCHEM_CACTVS_SUBSKEYS>  (1) 
AAADceB4PAAAAAAAAAAAAAAAAAAAAAAAAAAwYMEAAAAAAACBUAAAGgAACAAADESAmAAyBoAABgCIAqBSAAACCAAkIAAIiAEECMgMJzaGNRqCeWCl4BUIuYeI7OzOIAACCAAIAABAAAQQABAAAAAAAAAAAA==

>  <PUBCHEM_IUPAC_OPENEYE_NAME>  (1) 
(E)-1-[6-[(3-acetyl-2,4,6-trihydroxy-5-methyl-phenyl)methyl]-5,7-dihydroxy-2,2-dimethyl-chromen-8-yl]-3-phenyl-prop-2-en-1-one

>  <PUBCHEM_IUPAC_CAS_NAME>  (1) 
(E)-1-[6-[(3-acetyl-2,4,6-trihydroxy-5-methylphenyl)methyl]-5,7-dihydroxy-2,2-dimethyl-1-benzopyran-8-yl]-3-phenyl-2-propen-1-one

>  <PUBCHEM_IUPAC_NAME_MARKUP>  (1) 
(<I>E</I>)-1-[6-[(3-acetyl-2,4,6-trihydroxy-5-methylphenyl)methyl]-5,7-dihydroxy-2,2-dimethylchromen-8-yl]-3-phenylprop-2-en-1-one

>  <PUBCHEM_IUPAC_NAME>  (1) 
(E)-1-[6-[(3-acetyl-2,4,6-trihydroxy-5-methylphenyl)methyl]-5,7-dihydroxy-2,2-dimethylchromen-8-yl]-3-phenylprop-2-en-1-one

>  <PUBCHEM_IUPAC_SYSTEMATIC_NAME>  (1) 
(E)-1-[6-[[3-ethanoyl-5-methyl-2,4,6-tris(oxidanyl)phenyl]methyl]-2,2-dimethyl-5,7-bis(oxidanyl)chromen-8-yl]-3-phenyl-prop-2-en-1-one

>  <PUBCHEM_IUPAC_TRADITIONAL_NAME>  (1) 
(E)-1-[6-(3-acetyl-2,4,6-trihydroxy-5-methyl-benzyl)-5,7-dihydroxy-2,2-dimethyl-chromen-8-yl]-3-phenyl-prop-2-en-1-one

>  <PUBCHEM_IUPAC_INCHI>  (1) 
InChI=1S/C30H28O8/c1-15-24(33)19(27(36)22(16(2)31)25(15)34)14-20-26(35)18-12-13-30(3,4)38-29(18)23(28(20)37)21(32)11-10-17-8-6-5-7-9-17/h5-13,33-37H,14H2,1-4H3/b11-10+

>  <PUBCHEM_IUPAC_INCHIKEY>  (1) 
DEZFNHCVIZBHBI-ZHACJKMWSA-N

>  <PUBCHEM_XLOGP3_AA>  (1) 
5.9

>  <PUBCHEM_EXACT_MASS>  (1) 
516.17841785

>  <PUBCHEM_MOLECULAR_FORMULA>  (1) 
C30H28O8

>  <PUBCHEM_MOLECULAR_WEIGHT>  (1) 
516.5

>  <PUBCHEM_OPENEYE_CAN_SMILES>  (1) 
CC1=C(C(=C(C(=C1O)C(=O)C)O)CC2=C(C(=C3C(=C2O)C=CC(O3)(C)C)C(=O)C=CC4=CC=CC=C4)O)O

>  <PUBCHEM_OPENEYE_ISO_SMILES>  (1) 
CC1=C(C(=C(C(=C1O)C(=O)C)O)CC2=C(C(=C3C(=C2O)C=CC(O3)(C)C)C(=O)/C=C/C4=CC=CC=C4)O)O

>  <PUBCHEM_CACTVS_TPSA>  (1) 
145

>  <PUBCHEM_MONOISOTOPIC_WEIGHT>  (1) 
516.17841785

>  <PUBCHEM_TOTAL_CHARGE>  (1) 
0

>  <PUBCHEM_HEAVY_ATOM_COUNT>  (1) 
38

>  <PUBCHEM_ATOM_DEF_STEREO_COUNT>  (1) 
0

>  <PUBCHEM_ATOM_UDEF_STEREO_COUNT>  (1) 
0

>  <PUBCHEM_BOND_DEF_STEREO_COUNT>  (1) 
1

>  <PUBCHEM_BOND_UDEF_STEREO_COUNT>  (1) 
0

>  <PUBCHEM_ISOTOPIC_ATOM_COUNT>  (1) 
0

>  <PUBCHEM_COMPONENT_COUNT>  (1) 
1

>  <PUBCHEM_CACTVS_TAUTO_COUNT>  (1) 
-1

>  <PUBCHEM_COORDINATE_TYPE>  (1) 
1
5
255

>  <PUBCHEM_BONDANNOTATIONS>  (1) 
10  11  8
10  16  8
11  14  8
12  14  8
12  17  8
16  17  8
21  22  8
21  23  8
22  25  8
23  26  8
25  27  8
26  27  8
33  34  8
33  35  8
34  36  8
35  37  8
36  38  8
37  38  8

$$$$
