100956132
     RDKit          2D

 20 21  0  0  1  0  0  0  0  0999 V2000
    2.6340    0.6900    0.0000 O   0  0  0  0  0  0  0  0  0  0  0  0
    6.0981    0.6900    0.0000 O   0  0  0  0  0  0  0  0  0  0  0  0
    6.0981    2.6900    0.0000 O   0  0  0  0  0  0  0  0  0  0  0  0
    5.2320    2.1900    0.0000 N   0  0  0  0  0  0  0  0  0  0  0  0
    3.5000   -0.8100    0.0000 C   0  0  0  0  0  0  0  0  0  0  0  0
    4.3660   -0.3100    0.0000 C   0  0  0  0  0  0  0  0  0  0  0  0
    5.2320   -0.8100    0.0000 C   0  0  0  0  0  0  0  0  0  0  0  0
    3.5000   -1.8100    0.0000 C   0  0  0  0  0  0  0  0  0  0  0  0
    4.3660   -2.3100    0.0000 C   0  0  0  0  0  0  0  0  0  0  0  0
    5.2320   -1.8100    0.0000 C   0  0  0  0  0  0  0  0  0  0  0  0
    3.0000    0.0560    0.0000 C   0  0  0  0  0  0  0  0  0  0  0  0
    4.3660    0.6900    0.0000 C   0  0  0  0  0  0  0  0  0  0  0  0
    6.0981   -0.3100    0.0000 C   0  0  0  0  0  0  0  0  0  0  0  0
    2.5000   -0.8100    0.0000 C   0  0  0  0  0  0  0  0  0  0  0  0
    4.3660   -3.3100    0.0000 C   0  0  0  0  0  0  0  0  0  0  0  0
    3.5000    1.1900    0.0000 C   0  0  0  0  0  0  0  0  0  0  0  0
    5.2320    1.1900    0.0000 C   0  0  0  0  0  0  0  0  0  0  0  0
    2.0000   -1.6760    0.0000 C   0  0  0  0  0  0  0  0  0  0  0  0
    3.5000    2.1900    0.0000 C   0  0  0  0  0  0  0  0  0  0  0  0
    4.3660    2.6900    0.0000 C   0  0  0  0  0  0  0  0  0  0  0  0
  1 16  1  0
  2 17  2  0
  3  4  1  0
  4 17  1  0
  4 20  1  0
  5  6  1  0
  5  8  1  0
  5 11  1  1
  5 14  1  0
  6  7  1  0
  6 12  1  1
  7 10  1  0
  7 13  1  6
  8  9  1  0
  9 10  1  0
  9 15  1  6
 12 16  2  0
 12 17  1  0
 14 18  2  0
 16 19  1  0
 19 20  2  0
M  END
>  <PUBCHEM_COMPOUND_CID>  (1) 
100956132

>  <PUBCHEM_COMPOUND_CANONICALIZED>  (1) 
1

>  <PUBCHEM_CACTVS_COMPLEXITY>  (1) 
494

>  <PUBCHEM_CACTVS_HBOND_ACCEPTOR>  (1) 
3

>  <PUBCHEM_CACTVS_HBOND_DONOR>  (1) 
2

>  <PUBCHEM_CACTVS_ROTATABLE_BOND>  (1) 
2

>  <PUBCHEM_CACTVS_SUBSKEYS>  (1) 
AAADceB6MAAAAAAAAAAAAAAAAAAAAAAAAAAwQAAAAAAAAAAAAAAAHgAECAAADwTBgAQCAAIQAgCIAiFWUACAAAAgIgAoCAEIAEgIBBIAgAAEAAAAggAIkQMYiMCPgAAAAAAAAACAAAQAACAAAAAAAAAAAA==

>  <PUBCHEM_IUPAC_OPENEYE_NAME>  (1) 
1,4-dihydroxy-3-[(1S,2R,4S,6R)-2,4,6-trimethyl-2-vinyl-cyclohexyl]pyridin-2-one

>  <PUBCHEM_IUPAC_CAS_NAME>  (1) 
3-[(1S,2R,4S,6R)-2-ethenyl-2,4,6-trimethylcyclohexyl]-1,4-dihydroxy-2-pyridinone

>  <PUBCHEM_IUPAC_NAME_MARKUP>  (1) 
3-[(1<I>S</I>,2<I>R</I>,4<I>S</I>,6<I>R</I>)-2-ethenyl-2,4,6-trimethylcyclohexyl]-1,4-dihydroxypyridin-2-one

>  <PUBCHEM_IUPAC_NAME>  (1) 
3-[(1S,2R,4S,6R)-2-ethenyl-2,4,6-trimethylcyclohexyl]-1,4-dihydroxypyridin-2-one

>  <PUBCHEM_IUPAC_SYSTEMATIC_NAME>  (1) 
3-[(1S,2R,4S,6R)-2-ethenyl-2,4,6-trimethyl-cyclohexyl]-1,4-bis(oxidanyl)pyridin-2-one

>  <PUBCHEM_IUPAC_TRADITIONAL_NAME>  (1) 
1,4-dihydroxy-3-[(1S,2R,4S,6R)-2,4,6-trimethyl-2-vinyl-cyclohexyl]-2-pyridone

>  <PUBCHEM_IUPAC_INCHI>  (1) 
InChI=1S/C16H23NO3/c1-5-16(4)9-10(2)8-11(3)14(16)13-12(18)6-7-17(20)15(13)19/h5-7,10-11,14,18,20H,1,8-9H2,2-4H3/t10-,11+,14+,16-/m0/s1

>  <PUBCHEM_IUPAC_INCHIKEY>  (1) 
RUYMPIIPQAXOTF-CIGZNWKYSA-N

>  <PUBCHEM_XLOGP3_AA>  (1) 
3.2

>  <PUBCHEM_EXACT_MASS>  (1) 
277.16779360

>  <PUBCHEM_MOLECULAR_FORMULA>  (1) 
C16H23NO3

>  <PUBCHEM_MOLECULAR_WEIGHT>  (1) 
277.36

>  <PUBCHEM_OPENEYE_CAN_SMILES>  (1) 
CC1CC(C(C(C1)(C)C=C)C2=C(C=CN(C2=O)O)O)C

>  <PUBCHEM_OPENEYE_ISO_SMILES>  (1) 
C[C@H]1C[C@H]([C@@H]([C@@](C1)(C)C=C)C2=C(C=CN(C2=O)O)O)C

>  <PUBCHEM_CACTVS_TPSA>  (1) 
60.8

>  <PUBCHEM_MONOISOTOPIC_WEIGHT>  (1) 
277.16779360

>  <PUBCHEM_TOTAL_CHARGE>  (1) 
0

>  <PUBCHEM_HEAVY_ATOM_COUNT>  (1) 
20

>  <PUBCHEM_ATOM_DEF_STEREO_COUNT>  (1) 
4

>  <PUBCHEM_ATOM_UDEF_STEREO_COUNT>  (1) 
0

>  <PUBCHEM_BOND_DEF_STEREO_COUNT>  (1) 
0

>  <PUBCHEM_BOND_UDEF_STEREO_COUNT>  (1) 
0

>  <PUBCHEM_ISOTOPIC_ATOM_COUNT>  (1) 
0

>  <PUBCHEM_COMPONENT_COUNT>  (1) 
1

>  <PUBCHEM_CACTVS_TAUTO_COUNT>  (1) 
-1

>  <PUBCHEM_COORDINATE_TYPE>  (1) 
1
5
255

>  <PUBCHEM_BONDANNOTATIONS>  (1) 
12  16  8
12  17  8
16  19  8
19  20  8
4  17  8
4  20  8
5  11  5
6  21  6
7  13  6
9  15  6

$$$$
