135484176
     RDKit          2D

 57 59  0  0  1  0  0  0  0  0999 V2000
   10.3633    8.1685    0.0000 O   0  0  0  0  0  0  0  0  0  0  0  0
    7.7652    9.6685    0.0000 O   0  0  0  0  0  0  0  0  0  0  0  0
    9.9973    6.8025    0.0000 O   0  0  0  0  0  0  0  0  0  0  0  0
    7.7652    7.6685    0.0000 O   0  0  0  0  0  0  0  0  0  0  0  0
    8.0028   -1.9623    0.0000 O   0  0  0  0  0  0  0  0  0  0  0  0
   10.4973    5.9364    0.0000 O   0  0  0  0  0  0  0  0  0  0  0  0
   10.3822   -2.9792    0.0000 O   0  0  0  0  0  0  0  0  0  0  0  0
    8.7654   -4.4350    0.0000 O   0  0  0  0  0  0  0  0  0  0  0  0
    7.9973   -0.1257    0.0000 O   0  0  0  0  0  0  0  0  0  0  0  0
    3.0181   -6.9632    0.0000 O   0  0  0  0  0  0  0  0  0  0  0  0
    5.4451   -8.7265    0.0000 O   0  0  0  0  0  0  0  0  0  0  0  0
    2.0000   -8.3644    0.0000 O   0  0  0  0  0  0  0  0  0  0  0  0
    8.9973    5.0704    0.0000 N   0  0  0  0  0  0  0  0  0  0  0  0
    2.7045   -9.9467    0.0000 N   0  0  0  0  0  0  0  0  0  0  0  0
    9.4973    9.6685    0.0000 C   0  0  0  0  0  0  0  0  0  0  0  0
    8.6313    9.1685    0.0000 C   0  0  0  0  0  0  0  0  0  0  0  0
    9.4973    7.6685    0.0000 C   0  0  0  0  0  0  0  0  0  0  0  0
    8.6313    8.1685    0.0000 C   0  0  0  0  0  0  0  0  0  0  0  0
   10.3633    9.1685    0.0000 C   0  0  0  0  0  0  0  0  0  0  0  0
    8.9973    6.8025    0.0000 C   0  0  0  0  0  0  0  0  0  0  0  0
    9.9973   10.5345    0.0000 C   0  0  0  0  0  0  0  0  0  0  0  0
    8.9973   10.5345    0.0000 C   0  0  0  0  0  0  0  0  0  0  0  0
    7.9973    6.8025    0.0000 C   0  0  0  0  0  0  0  0  0  0  0  0
   11.2293    9.6685    0.0000 C   0  0  0  0  0  0  0  0  0  0  0  0
    9.4973    5.9364    0.0000 C   0  0  0  0  0  0  0  0  0  0  0  0
    8.9973   -1.8578    0.0000 C   0  0  0  0  0  0  0  0  0  0  0  0
    9.4040   -2.7713    0.0000 C   0  0  0  0  0  0  0  0  0  0  0  0
    9.4973   -0.9918    0.0000 C   0  0  0  0  0  0  0  0  0  0  0  0
    8.6609   -3.4404    0.0000 C   0  0  0  0  0  0  0  0  0  0  0  0
    7.4973    5.9364    0.0000 C   0  0  0  0  0  0  0  0  0  0  0  0
    7.7949   -2.9404    0.0000 C   0  0  0  0  0  0  0  0  0  0  0  0
   12.0954    9.1685    0.0000 C   0  0  0  0  0  0  0  0  0  0  0  0
    8.9973   -0.1257    0.0000 C   0  0  0  0  0  0  0  0  0  0  0  0
   10.4973   -0.9918    0.0000 C   0  0  0  0  0  0  0  0  0  0  0  0
    9.4973    4.2044    0.0000 C   0  0  0  0  0  0  0  0  0  0  0  0
    9.4973    0.7403    0.0000 C   0  0  0  0  0  0  0  0  0  0  0  0
    6.8813   -3.3472    0.0000 C   0  0  0  0  0  0  0  0  0  0  0  0
   12.9614    9.6685    0.0000 C   0  0  0  0  0  0  0  0  0  0  0  0
    8.9973    3.3384    0.0000 C   0  0  0  0  0  0  0  0  0  0  0  0
    8.9973    1.6063    0.0000 C   0  0  0  0  0  0  0  0  0  0  0  0
   10.4973    0.7403    0.0000 C   0  0  0  0  0  0  0  0  0  0  0  0
    6.7768   -4.3417    0.0000 C   0  0  0  0  0  0  0  0  0  0  0  0
    9.4973    2.4724    0.0000 C   0  0  0  0  0  0  0  0  0  0  0  0
   13.8274    9.1685    0.0000 C   0  0  0  0  0  0  0  0  0  0  0  0
    7.4973    0.7403    0.0000 C   0  0  0  0  0  0  0  0  0  0  0  0
    5.8632   -4.7484    0.0000 C   0  0  0  0  0  0  0  0  0  0  0  0
   13.8274    8.1685    0.0000 C   0  0  0  0  0  0  0  0  0  0  0  0
    5.7587   -5.7430    0.0000 C   0  0  0  0  0  0  0  0  0  0  0  0
    4.8452   -6.1497    0.0000 C   0  0  0  0  0  0  0  0  0  0  0  0
    4.7406   -7.1442    0.0000 C   0  0  0  0  0  0  0  0  0  0  0  0
    5.5496   -7.7320    0.0000 C   0  0  0  0  0  0  0  0  0  0  0  0
    3.8271   -7.5510    0.0000 C   0  0  0  0  0  0  0  0  0  0  0  0
    3.7226   -8.5455    0.0000 C   0  0  0  0  0  0  0  0  0  0  0  0
    4.5316   -9.1333    0.0000 C   0  0  0  0  0  0  0  0  0  0  0  0
    2.8090   -8.9522    0.0000 C   0  0  0  0  0  0  0  0  0  0  0  0
    4.4271  -10.1278    0.0000 C   0  0  0  0  0  0  0  0  0  0  0  0
    3.5135  -10.5345    0.0000 C   0  0  0  0  0  0  0  0  0  0  0  0
  1 17  1  0
  1 19  1  0
 16  2  1  6
 17  3  1  1
 18  4  1  6
 26  5  1  1
  5 31  1  0
  6 25  2  0
 27  7  1  1
 29  8  1  1
 33  9  1  6
  9 45  1  0
 10 52  2  0
 11 54  1  0
 12 55  2  0
 13 25  1  0
 13 35  1  0
 14 55  1  0
 14 57  1  0
 15 16  1  0
 15 19  1  0
 15 21  1  0
 15 22  1  0
 16 18  1  0
 17 18  1  0
 17 20  1  0
 19 24  1  6
 20 23  1  1
 20 25  1  0
 23 30  1  0
 24 32  2  0
 26 27  1  0
 26 28  1  0
 27 29  1  0
 28 33  1  0
 28 34  1  1
 29 31  1  0
 31 37  1  1
 32 38  1  0
 33 36  1  0
 35 39  1  0
 36 40  2  0
 36 41  1  0
 37 42  2  0
 38 44  2  0
 39 43  2  0
 40 43  1  0
 42 46  1  0
 44 47  1  0
 46 48  2  0
 48 49  1  0
 49 50  2  0
 50 51  1  0
 50 52  1  0
 52 53  1  0
 53 54  2  0
 53 55  1  0
 54 56  1  0
 56 57  2  0
M  END
>  <PUBCHEM_COMPOUND_CID>  (1) 
135484176

>  <PUBCHEM_COMPOUND_CANONICALIZED>  (1) 
1

>  <PUBCHEM_CACTVS_COMPLEXITY>  (1) 
1720

>  <PUBCHEM_CACTVS_HBOND_ACCEPTOR>  (1) 
12

>  <PUBCHEM_CACTVS_HBOND_DONOR>  (1) 
8

>  <PUBCHEM_CACTVS_ROTATABLE_BOND>  (1) 
17

>  <PUBCHEM_CACTVS_SUBSKEYS>  (1) 
AAADcfB/PAAAAAAAAAAAAAAAAAAAASAAAAAkQAAAAAAAAAAAAAAAHgAQCAAADxThgAYCCALABgCIAqFWUACAAAAgIgAICIEIAEgZFB4IoQAGUAAH9gCPsYP6/P7PAAAAAAAAAAAAAAAAAAAAAAAAAAAAAA==

>  <PUBCHEM_IUPAC_OPENEYE_NAME>  (1) 
(2S)-N-[(2E,4E,6S,7R)-7-[(2S,3S,4R,5R)-3,4-dihydroxy-5-[(1E,3E,5E)-7-(4-hydroxy-2-oxo-1H-pyridin-3-yl)-6-methyl-7-oxo-hepta-1,3,5-trienyl]tetrahydrofuran-2-yl]-6-methoxy-5-methyl-octa-2,4-dienyl]-2-[(2R,3R,4R,6S)-2,3,4-trihydroxy-5,5-dimethyl-6-[(1E,3Z)-penta-1,3-dienyl]tetrahydropyran-2-yl]butanamide

>  <PUBCHEM_IUPAC_CAS_NAME>  (1) 
(2S)-N-[(2E,4E,6S,7R)-7-[(2S,3S,4R,5R)-3,4-dihydroxy-5-[(1E,3E,5E)-7-(4-hydroxy-2-oxo-1H-pyridin-3-yl)-6-methyl-7-oxohepta-1,3,5-trienyl]-2-oxolanyl]-6-methoxy-5-methylocta-2,4-dienyl]-2-[(2R,3R,4R,6S)-2,3,4-trihydroxy-5,5-dimethyl-6-[(1E,3Z)-penta-1,3-dienyl]-2-oxanyl]butanamide

>  <PUBCHEM_IUPAC_NAME_MARKUP>  (1) 
(2<I>S</I>)-<I>N</I>-[(2<I>E</I>,4<I>E</I>,6<I>S</I>,7<I>R</I>)-7-[(2<I>S</I>,3<I>S</I>,4<I>R</I>,5<I>R</I>)-3,4-dihydroxy-5-[(1<I>E</I>,3<I>E</I>,5<I>E</I>)-7-(4-hydroxy-2-oxo-1<I>H</I>-pyridin-3-yl)-6-methyl-7-oxohepta-1,3,5-trienyl]oxolan-2-yl]-6-methoxy-5-methylocta-2,4-dienyl]-2-[(2<I>R</I>,3<I>R</I>,4<I>R</I>,6<I>S</I>)-2,3,4-trihydroxy-5,5-dimethyl-6-[(1<I>E</I>,3<I>Z</I>)-penta-1,3-dienyl]oxan-2-yl]butanamide

>  <PUBCHEM_IUPAC_NAME>  (1) 
(2S)-N-[(2E,4E,6S,7R)-7-[(2S,3S,4R,5R)-3,4-dihydroxy-5-[(1E,3E,5E)-7-(4-hydroxy-2-oxo-1H-pyridin-3-yl)-6-methyl-7-oxohepta-1,3,5-trienyl]oxolan-2-yl]-6-methoxy-5-methylocta-2,4-dienyl]-2-[(2R,3R,4R,6S)-2,3,4-trihydroxy-5,5-dimethyl-6-[(1E,3Z)-penta-1,3-dienyl]oxan-2-yl]butanamide

>  <PUBCHEM_IUPAC_SYSTEMATIC_NAME>  (1) 
(2S)-2-[(2R,3R,4R,6S)-5,5-dimethyl-2,3,4-tris(oxidanyl)-6-[(1E,3Z)-penta-1,3-dienyl]oxan-2-yl]-N-[(2E,4E,6S,7R)-6-methoxy-5-methyl-7-[(2S,3S,4R,5R)-5-[(1E,3E,5E)-6-methyl-7-oxidanylidene-7-(4-oxidanyl-2-oxidanylidene-1H-pyridin-3-yl)hepta-1,3,5-trienyl]-3,4-bis(oxidanyl)oxolan-2-yl]octa-2,4-dienyl]butanamide

>  <PUBCHEM_IUPAC_TRADITIONAL_NAME>  (1) 
(2S)-N-[(2E,4E,6S,7R)-7-[(2S,3S,4R,5R)-3,4-dihydroxy-5-[(1E,3E,5E)-7-(4-hydroxy-2-keto-1H-pyridin-3-yl)-7-keto-6-methyl-hepta-1,3,5-trienyl]tetrahydrofuran-2-yl]-6-methoxy-5-methyl-octa-2,4-dienyl]-2-[(2R,3R,4R,6S)-2,3,4-trihydroxy-5,5-dimethyl-6-[(1E,3Z)-penta-1,3-dienyl]tetrahydropyran-2-yl]butyramide

>  <PUBCHEM_IUPAC_INCHI>  (1) 
InChI=1S/C43H60N2O12/c1-9-11-13-21-31-42(6,7)38(50)39(51)43(54,57-31)28(10-2)40(52)44-23-17-16-19-26(4)36(55-8)27(5)37-35(49)34(48)30(56-37)20-15-12-14-18-25(3)33(47)32-29(46)22-24-45-41(32)53/h9,11-22,24,27-28,30-31,34-39,48-51,54H,10,23H2,1-8H3,(H,44,52)(H2,45,46,53)/b11-9-,14-12+,17-16+,20-15+,21-13+,25-18+,26-19+/t27-,28-,30-,31+,34+,35+,36-,37+,38+,39-,43-/m1/s1

>  <PUBCHEM_IUPAC_INCHIKEY>  (1) 
HMSYAPGFKGSXAJ-PAHGNTJYSA-N

>  <PUBCHEM_XLOGP3_AA>  (1) 
3.8

>  <PUBCHEM_EXACT_MASS>  (1) 
796.41462535

>  <PUBCHEM_MOLECULAR_FORMULA>  (1) 
C43H60N2O12

>  <PUBCHEM_MOLECULAR_WEIGHT>  (1) 
796.9

>  <PUBCHEM_OPENEYE_CAN_SMILES>  (1) 
CCC(C(=O)NCC=CC=C(C)C(C(C)C1C(C(C(O1)C=CC=CC=C(C)C(=O)C2=C(C=CNC2=O)O)O)O)OC)C3(C(C(C(C(O3)C=CC=CC)(C)C)O)O)O

>  <PUBCHEM_OPENEYE_ISO_SMILES>  (1) 
CC[C@H](C(=O)NC/C=C/C=C(\C)/[C@H]([C@@H](C)[C@H]1[C@H]([C@H]([C@H](O1)/C=C/C=C/C=C(\C)/C(=O)C2=C(C=CNC2=O)O)O)O)OC)[C@@]3([C@@H]([C@@H](C([C@@H](O3)/C=C/C=C\C)(C)C)O)O)O

>  <PUBCHEM_CACTVS_TPSA>  (1) 
224

>  <PUBCHEM_MONOISOTOPIC_WEIGHT>  (1) 
796.41462535

>  <PUBCHEM_TOTAL_CHARGE>  (1) 
0

>  <PUBCHEM_HEAVY_ATOM_COUNT>  (1) 
57

>  <PUBCHEM_ATOM_DEF_STEREO_COUNT>  (1) 
11

>  <PUBCHEM_ATOM_UDEF_STEREO_COUNT>  (1) 
0

>  <PUBCHEM_BOND_DEF_STEREO_COUNT>  (1) 
7

>  <PUBCHEM_BOND_UDEF_STEREO_COUNT>  (1) 
0

>  <PUBCHEM_ISOTOPIC_ATOM_COUNT>  (1) 
0

>  <PUBCHEM_COMPONENT_COUNT>  (1) 
1

>  <PUBCHEM_CACTVS_TAUTO_COUNT>  (1) 
-1

>  <PUBCHEM_COORDINATE_TYPE>  (1) 
1
5
255

>  <PUBCHEM_BONDANNOTATIONS>  (1) 
14  55  8
14  57  8
19  24  6
16  2  6
20  23  5
26  74  6
28  34  5
17  3  5
31  37  5
18  4  6
53  54  8
53  55  8
54  56  8
56  57  8
27  7  5
29  8  5
33  9  6

$$$$
