11724205
     RDKit          2D

 24 26  0  0  1  0  0  0  0  0999 V2000
    6.3981   -2.0798    0.0000 O   0  0  0  0  0  0  0  0  0  0  0  0
    3.7782    1.4517    0.0000 O   0  0  0  0  0  0  0  0  0  0  0  0
    5.5442    2.4895    0.0000 O   0  0  0  0  0  0  0  0  0  0  0  0
    3.8000   -1.5798    0.0000 C   0  0  0  0  0  0  0  0  0  0  0  0
    3.8000   -0.5798    0.0000 C   0  0  0  0  0  0  0  0  0  0  0  0
    2.9061   -2.1144    0.0000 C   0  0  0  0  0  0  0  0  0  0  0  0
    2.9061   -0.0451    0.0000 C   0  0  0  0  0  0  0  0  0  0  0  0
    2.0000   -1.6006    0.0000 C   0  0  0  0  0  0  0  0  0  0  0  0
    2.0000   -0.5589    0.0000 C   0  0  0  0  0  0  0  0  0  0  0  0
    4.6660   -2.0798    0.0000 C   0  0  0  0  0  0  0  0  0  0  0  0
    4.6660   -0.0798    0.0000 C   0  0  0  0  0  0  0  0  0  0  0  0
    3.8000    0.4202    0.0000 C   0  0  0  0  0  0  0  0  0  0  0  0
    2.4161   -2.9862    0.0000 C   0  0  0  0  0  0  0  0  0  0  0  0
    3.4160   -2.9746    0.0000 C   0  0  0  0  0  0  0  0  0  0  0  0
    5.5321   -0.5798    0.0000 C   0  0  0  0  0  0  0  0  0  0  0  0
    5.5321   -1.5798    0.0000 C   0  0  0  0  0  0  0  0  0  0  0  0
    4.6500    0.9618    0.0000 C   0  0  0  0  0  0  0  0  0  0  0  0
    6.4421   -0.0729    0.0000 C   0  0  0  0  0  0  0  0  0  0  0  0
    5.5480    1.4895    0.0000 C   0  0  0  0  0  0  0  0  0  0  0  0
    6.4501    0.9687    0.0000 C   0  0  0  0  0  0  0  0  0  0  0  0
    7.3180    1.4654    0.0000 C   0  0  0  0  0  0  0  0  0  0  0  0
    8.1821    0.9620    0.0000 C   0  0  0  0  0  0  0  0  0  0  0  0
    7.3219    2.4654    0.0000 C   0  0  0  0  0  0  0  0  0  0  0  0
    4.6762    2.9862    0.0000 C   0  0  0  0  0  0  0  0  0  0  0  0
  1 16  2  0
  2 17  1  0
  3 19  1  0
  3 24  1  0
  4  5  1  0
  4  6  1  0
  4 10  1  1
  5  7  1  0
  5 11  1  0
  5 12  1  1
  6  8  1  0
  6 13  1  0
  6 14  1  0
  7  9  1  0
  8  9  1  0
 10 16  1  0
 11 15  2  0
 11 17  1  0
 15 16  1  0
 15 18  1  0
 17 19  2  0
 18 20  2  0
 19 20  1  0
 20 21  1  0
 21 22  1  0
 21 23  1  0
M  END
>  <PUBCHEM_COMPOUND_CID>  (1) 
11724205

>  <PUBCHEM_COMPOUND_CANONICALIZED>  (1) 
1

>  <PUBCHEM_CACTVS_COMPLEXITY>  (1) 
497

>  <PUBCHEM_CACTVS_HBOND_ACCEPTOR>  (1) 
3

>  <PUBCHEM_CACTVS_HBOND_DONOR>  (1) 
1

>  <PUBCHEM_CACTVS_ROTATABLE_BOND>  (1) 
2

>  <PUBCHEM_CACTVS_SUBSKEYS>  (1) 
AAADceB4MAAAAAAAAAAAAAAAAAAAAAAAAAAwYMAAAAAAAADBAAAAGgAACAAADwSAmAIyBoAABgCIAqBSAAACCAAkIAAAiAEEiMgNJjKGNRqAcSMkwBELuYeKzPDP4AADAAAYQADAAAYAADCAAAAAAAAAAA==

>  <PUBCHEM_IUPAC_OPENEYE_NAME>  (1) 
(4aS,10aS)-5-hydroxy-7-isopropyl-6-methoxy-1,1,4a-trimethyl-3,4,10,10a-tetrahydro-2H-phenanthren-9-one

>  <PUBCHEM_IUPAC_CAS_NAME>  (1) 
(4aS,10aS)-5-hydroxy-6-methoxy-1,1,4a-trimethyl-7-propan-2-yl-3,4,10,10a-tetrahydro-2H-phenanthren-9-one

>  <PUBCHEM_IUPAC_NAME_MARKUP>  (1) 
(4<I>a</I><I>S</I>,10<I>a</I><I>S</I>)-5-hydroxy-6-methoxy-1,1,4<I>a</I>-trimethyl-7-propan-2-yl-3,4,10,10<I>a</I>-tetrahydro-2<I>H</I>-phenanthren-9-one

>  <PUBCHEM_IUPAC_NAME>  (1) 
(4aS,10aS)-5-hydroxy-6-methoxy-1,1,4a-trimethyl-7-propan-2-yl-3,4,10,10a-tetrahydro-2H-phenanthren-9-one

>  <PUBCHEM_IUPAC_SYSTEMATIC_NAME>  (1) 
(4aS,10aS)-6-methoxy-1,1,4a-trimethyl-5-oxidanyl-7-propan-2-yl-3,4,10,10a-tetrahydro-2H-phenanthren-9-one

>  <PUBCHEM_IUPAC_TRADITIONAL_NAME>  (1) 
(4aS,10aS)-5-hydroxy-7-isopropyl-6-methoxy-1,1,4a-trimethyl-3,4,10,10a-tetrahydro-2H-phenanthren-9-one

>  <PUBCHEM_IUPAC_INCHI>  (1) 
InChI=1S/C21H30O3/c1-12(2)13-10-14-15(22)11-16-20(3,4)8-7-9-21(16,5)17(14)18(23)19(13)24-6/h10,12,16,23H,7-9,11H2,1-6H3/t16-,21-/m0/s1

>  <PUBCHEM_IUPAC_INCHIKEY>  (1) 
CZEPBGSMIRTHKN-KKSFZXQISA-N

>  <PUBCHEM_XLOGP3_AA>  (1) 
5.6

>  <PUBCHEM_EXACT_MASS>  (1) 
330.21949481

>  <PUBCHEM_MOLECULAR_FORMULA>  (1) 
C21H30O3

>  <PUBCHEM_MOLECULAR_WEIGHT>  (1) 
330.5

>  <PUBCHEM_OPENEYE_CAN_SMILES>  (1) 
CC(C)C1=C(C(=C2C(=C1)C(=O)CC3C2(CCCC3(C)C)C)O)OC

>  <PUBCHEM_OPENEYE_ISO_SMILES>  (1) 
CC(C)C1=C(C(=C2C(=C1)C(=O)C[C@@H]3[C@@]2(CCCC3(C)C)C)O)OC

>  <PUBCHEM_CACTVS_TPSA>  (1) 
46.5

>  <PUBCHEM_MONOISOTOPIC_WEIGHT>  (1) 
330.21949481

>  <PUBCHEM_TOTAL_CHARGE>  (1) 
0

>  <PUBCHEM_HEAVY_ATOM_COUNT>  (1) 
24

>  <PUBCHEM_ATOM_DEF_STEREO_COUNT>  (1) 
2

>  <PUBCHEM_ATOM_UDEF_STEREO_COUNT>  (1) 
0

>  <PUBCHEM_BOND_DEF_STEREO_COUNT>  (1) 
0

>  <PUBCHEM_BOND_UDEF_STEREO_COUNT>  (1) 
0

>  <PUBCHEM_ISOTOPIC_ATOM_COUNT>  (1) 
0

>  <PUBCHEM_COMPONENT_COUNT>  (1) 
1

>  <PUBCHEM_CACTVS_TAUTO_COUNT>  (1) 
-1

>  <PUBCHEM_COORDINATE_TYPE>  (1) 
1
5
255

>  <PUBCHEM_BONDANNOTATIONS>  (1) 
11  15  8
11  17  8
15  18  8
17  19  8
18  20  8
19  20  8
4  25  6
5  12  5

$$$$
