10919701
     RDKit          2D

 52 57  0  0  1  0  0  0  0  0999 V2000
   10.3312   -1.7857    0.0000 O   0  0  0  0  0  0  0  0  0  0  0  0
    8.5991    0.2143    0.0000 O   0  0  0  0  0  0  0  0  0  0  0  0
    9.4651   -3.2857    0.0000 O   0  0  0  0  0  0  0  0  0  0  0  0
    6.0010   -0.2857    0.0000 O   0  0  0  0  0  0  0  0  0  0  0  0
    8.5991   -2.7857    0.0000 O   0  0  0  0  0  0  0  0  0  0  0  0
   10.3312    0.2143    0.0000 O   0  0  0  0  0  0  0  0  0  0  0  0
    6.8671   -1.7857    0.0000 O   0  0  0  0  0  0  0  0  0  0  0  0
    4.2690   -0.2857    0.0000 O   0  0  0  0  0  0  0  0  0  0  0  0
   12.0632   -2.7857    0.0000 O   0  0  0  0  0  0  0  0  0  0  0  0
   12.0632   -4.7857    0.0000 O   0  0  0  0  0  0  0  0  0  0  0  0
   10.3312   -5.7857    0.0000 O   0  0  0  0  0  0  0  0  0  0  0  0
    6.0010    1.7143    0.0000 O   0  0  0  0  0  0  0  0  0  0  0  0
    4.2690    2.7143    0.0000 O   0  0  0  0  0  0  0  0  0  0  0  0
    2.5369    1.7143    0.0000 O   0  0  0  0  0  0  0  0  0  0  0  0
   11.1972    2.7143    0.0000 O   0  0  0  0  0  0  0  0  0  0  0  0
    8.5991    1.2143    0.0000 O   0  0  0  0  0  0  0  0  0  0  0  0
    7.6950    2.7112    0.0000 O   0  0  0  0  0  0  0  0  0  0  0  0
    9.4530    5.7836    0.0000 O   0  0  0  0  0  0  0  0  0  0  0  0
   14.6613   -0.2857    0.0000 O   0  0  0  0  0  0  0  0  0  0  0  0
    9.4651   -1.2857    0.0000 C   0  0  0  0  0  0  0  0  0  0  0  0
    8.5991   -1.7857    0.0000 C   0  0  0  0  0  0  0  0  0  0  0  0
    7.7331   -1.2857    0.0000 C   0  0  0  0  0  0  0  0  0  0  0  0
    7.7331   -0.2857    0.0000 C   0  0  0  0  0  0  0  0  0  0  0  0
    9.4651   -0.2857    0.0000 C   0  0  0  0  0  0  0  0  0  0  0  0
   10.3312   -2.7857    0.0000 C   0  0  0  0  0  0  0  0  0  0  0  0
   11.1972   -3.2857    0.0000 C   0  0  0  0  0  0  0  0  0  0  0  0
   11.1972   -4.2857    0.0000 C   0  0  0  0  0  0  0  0  0  0  0  0
    6.8671    0.2143    0.0000 C   0  0  0  0  0  0  0  0  0  0  0  0
   10.3312   -4.7857    0.0000 C   0  0  0  0  0  0  0  0  0  0  0  0
    9.4651   -4.2857    0.0000 C   0  0  0  0  0  0  0  0  0  0  0  0
    5.1350    0.2143    0.0000 C   0  0  0  0  0  0  0  0  0  0  0  0
    5.1350    1.2143    0.0000 C   0  0  0  0  0  0  0  0  0  0  0  0
    4.2690    1.7143    0.0000 C   0  0  0  0  0  0  0  0  0  0  0  0
    3.4030    1.2143    0.0000 C   0  0  0  0  0  0  0  0  0  0  0  0
    3.4030    0.2143    0.0000 C   0  0  0  0  0  0  0  0  0  0  0  0
    8.5991   -4.7857    0.0000 C   0  0  0  0  0  0  0  0  0  0  0  0
    2.5369   -0.2857    0.0000 C   0  0  0  0  0  0  0  0  0  0  0  0
   10.3312    1.2143    0.0000 C   0  0  0  0  0  0  0  0  0  0  0  0
   11.1972    1.7143    0.0000 C   0  0  0  0  0  0  0  0  0  0  0  0
    9.4651    1.7143    0.0000 C   0  0  0  0  0  0  0  0  0  0  0  0
    9.4651    2.7143    0.0000 C   0  0  0  0  0  0  0  0  0  0  0  0
   12.0632    1.2143    0.0000 C   0  0  0  0  0  0  0  0  0  0  0  0
   10.3312    3.2143    0.0000 C   0  0  0  0  0  0  0  0  0  0  0  0
    8.5551    3.2212    0.0000 C   0  0  0  0  0  0  0  0  0  0  0  0
   10.3472    4.2558    0.0000 C   0  0  0  0  0  0  0  0  0  0  0  0
   12.0632    0.2143    0.0000 C   0  0  0  0  0  0  0  0  0  0  0  0
   12.9292    1.7143    0.0000 C   0  0  0  0  0  0  0  0  0  0  0  0
    8.5471    4.2628    0.0000 C   0  0  0  0  0  0  0  0  0  0  0  0
    9.4492    4.7836    0.0000 C   0  0  0  0  0  0  0  0  0  0  0  0
   12.9292   -0.2857    0.0000 C   0  0  0  0  0  0  0  0  0  0  0  0
   13.7953    1.2143    0.0000 C   0  0  0  0  0  0  0  0  0  0  0  0
   13.7953    0.2143    0.0000 C   0  0  0  0  0  0  0  0  0  0  0  0
 20  1  1  6
 25  1  1  1
  2 23  1  0
  2 24  1  0
  3 25  1  0
  3 30  1  0
  4 28  1  0
 31  4  1  6
 21  5  1  1
 24  6  1  1
  6 38  1  0
 22  7  1  1
  8 31  1  0
  8 35  1  0
 26  9  1  6
 27 10  1  6
 29 11  1  1
 32 12  1  1
 33 13  1  1
 34 14  1  6
 15 39  1  0
 15 43  1  0
 16 40  2  0
 17 44  1  0
 18 49  1  0
 19 52  1  0
 20 21  1  0
 20 24  1  0
 21 22  1  0
 22 23  1  0
 23 28  1  1
 25 26  1  0
 26 27  1  0
 27 29  1  0
 29 30  1  0
 30 36  1  6
 31 32  1  0
 32 33  1  0
 33 34  1  0
 34 35  1  0
 35 37  1  1
 38 39  2  0
 38 40  1  0
 39 42  1  0
 40 41  1  0
 41 43  2  0
 41 44  1  0
 42 46  2  0
 42 47  1  0
 43 45  1  0
 44 48  2  0
 45 49  2  0
 46 50  1  0
 47 51  2  0
 48 49  1  0
 50 52  2  0
 51 52  1  0
M  END
>  <PUBCHEM_COMPOUND_CID>  (1) 
10919701

>  <PUBCHEM_COMPOUND_CANONICALIZED>  (1) 
1

>  <PUBCHEM_CACTVS_COMPLEXITY>  (1) 
1260

>  <PUBCHEM_CACTVS_HBOND_ACCEPTOR>  (1) 
19

>  <PUBCHEM_CACTVS_HBOND_DONOR>  (1) 
11

>  <PUBCHEM_CACTVS_ROTATABLE_BOND>  (1) 
8

>  <PUBCHEM_CACTVS_SUBSKEYS>  (1) 
AAADcfB8PgAAAAAAAAAAAAAAAAAAAAAAAAA0aJECAAAAAACBQAAAGgAACAAADBSwmAMyDoAABgCIAqBSAAICCAAkIAAIiAFGCMgdNzaGNR6ieWCl4BUPuQfI7KzOIAAACAAIAABAAAAQABAAAAAAAAAAAA==

>  <PUBCHEM_IUPAC_OPENEYE_NAME>  (1) 
3-[(2S,3R,4S,5R,6R)-4,5-dihydroxy-3-[(2R,3R,4R,5R,6S)-3,4,5-trihydroxy-6-methyl-tetrahydropyran-2-yl]oxy-6-[[(2R,3R,4R,5R,6S)-3,4,5-trihydroxy-6-methyl-tetrahydropyran-2-yl]oxymethyl]tetrahydropyran-2-yl]oxy-5,7-dihydroxy-2-(4-hydroxyphenyl)chromen-4-one

>  <PUBCHEM_IUPAC_CAS_NAME>  (1) 
3-[[(2S,3R,4S,5R,6R)-4,5-dihydroxy-3-[[(2R,3R,4R,5R,6S)-3,4,5-trihydroxy-6-methyl-2-oxanyl]oxy]-6-[[(2R,3R,4R,5R,6S)-3,4,5-trihydroxy-6-methyl-2-oxanyl]oxymethyl]-2-oxanyl]oxy]-5,7-dihydroxy-2-(4-hydroxyphenyl)-1-benzopyran-4-one

>  <PUBCHEM_IUPAC_NAME_MARKUP>  (1) 
3-[(2<I>S</I>,3<I>R</I>,4<I>S</I>,5<I>R</I>,6<I>R</I>)-4,5-dihydroxy-3-[(2<I>R</I>,3<I>R</I>,4<I>R</I>,5<I>R</I>,6<I>S</I>)-3,4,5-trihydroxy-6-methyloxan-2-yl]oxy-6-[[(2<I>R</I>,3<I>R</I>,4<I>R</I>,5<I>R</I>,6<I>S</I>)-3,4,5-trihydroxy-6-methyloxan-2-yl]oxymethyl]oxan-2-yl]oxy-5,7-dihydroxy-2-(4-hydroxyphenyl)chromen-4-one

>  <PUBCHEM_IUPAC_NAME>  (1) 
3-[(2S,3R,4S,5R,6R)-4,5-dihydroxy-3-[(2R,3R,4R,5R,6S)-3,4,5-trihydroxy-6-methyloxan-2-yl]oxy-6-[[(2R,3R,4R,5R,6S)-3,4,5-trihydroxy-6-methyloxan-2-yl]oxymethyl]oxan-2-yl]oxy-5,7-dihydroxy-2-(4-hydroxyphenyl)chromen-4-one

>  <PUBCHEM_IUPAC_SYSTEMATIC_NAME>  (1) 
2-(4-hydroxyphenyl)-3-[(2S,3R,4S,5R,6R)-3-[(2R,3R,4R,5R,6S)-6-methyl-3,4,5-tris(oxidanyl)oxan-2-yl]oxy-6-[[(2R,3R,4R,5R,6S)-6-methyl-3,4,5-tris(oxidanyl)oxan-2-yl]oxymethyl]-4,5-bis(oxidanyl)oxan-2-yl]oxy-5,7-bis(oxidanyl)chromen-4-one

>  <PUBCHEM_IUPAC_TRADITIONAL_NAME>  (1) 
3-[(2S,3R,4S,5R,6R)-4,5-dihydroxy-3-[(2R,3R,4R,5R,6S)-3,4,5-trihydroxy-6-methyl-tetrahydropyran-2-yl]oxy-6-[[(2R,3R,4R,5R,6S)-3,4,5-trihydroxy-6-methyl-tetrahydropyran-2-yl]oxymethyl]tetrahydropyran-2-yl]oxy-5,7-dihydroxy-2-(4-hydroxyphenyl)chromone

>  <PUBCHEM_IUPAC_INCHI>  (1) 
InChI=1S/C33H40O19/c1-10-19(37)23(41)26(44)31(47-10)46-9-17-21(39)25(43)30(52-32-27(45)24(42)20(38)11(2)48-32)33(50-17)51-29-22(40)18-15(36)7-14(35)8-16(18)49-28(29)12-3-5-13(34)6-4-12/h3-8,10-11,17,19-21,23-27,30-39,41-45H,9H2,1-2H3/t10-,11-,17+,19-,20-,21-,23+,24+,25-,26+,27+,30+,31+,32-,33-/m0/s1

>  <PUBCHEM_IUPAC_INCHIKEY>  (1) 
WRXVPTMENPZUIZ-MOVIZTNPSA-N

>  <PUBCHEM_XLOGP3_AA>  (1) 
-2

>  <PUBCHEM_EXACT_MASS>  (1) 
740.21637904

>  <PUBCHEM_MOLECULAR_FORMULA>  (1) 
C33H40O19

>  <PUBCHEM_MOLECULAR_WEIGHT>  (1) 
740.7

>  <PUBCHEM_OPENEYE_CAN_SMILES>  (1) 
CC1C(C(C(C(O1)OCC2C(C(C(C(O2)OC3=C(OC4=CC(=CC(=C4C3=O)O)O)C5=CC=C(C=C5)O)OC6C(C(C(C(O6)C)O)O)O)O)O)O)O)O

>  <PUBCHEM_OPENEYE_ISO_SMILES>  (1) 
C[C@H]1[C@@H]([C@H]([C@H]([C@@H](O1)OC[C@@H]2[C@@H]([C@@H]([C@H]([C@@H](O2)OC3=C(OC4=CC(=CC(=C4C3=O)O)O)C5=CC=C(C=C5)O)O[C@H]6[C@@H]([C@@H]([C@H]([C@@H](O6)C)O)O)O)O)O)O)O)O

>  <PUBCHEM_CACTVS_TPSA>  (1) 
304

>  <PUBCHEM_MONOISOTOPIC_WEIGHT>  (1) 
740.21637904

>  <PUBCHEM_TOTAL_CHARGE>  (1) 
0

>  <PUBCHEM_HEAVY_ATOM_COUNT>  (1) 
52

>  <PUBCHEM_ATOM_DEF_STEREO_COUNT>  (1) 
15

>  <PUBCHEM_ATOM_UDEF_STEREO_COUNT>  (1) 
0

>  <PUBCHEM_BOND_DEF_STEREO_COUNT>  (1) 
0

>  <PUBCHEM_BOND_UDEF_STEREO_COUNT>  (1) 
0

>  <PUBCHEM_ISOTOPIC_ATOM_COUNT>  (1) 
0

>  <PUBCHEM_COMPONENT_COUNT>  (1) 
1

>  <PUBCHEM_CACTVS_TAUTO_COUNT>  (1) 
-1

>  <PUBCHEM_COORDINATE_TYPE>  (1) 
1
5
255

>  <PUBCHEM_BONDANNOTATIONS>  (1) 
20  1  6
25  1  5
27  10  6
29  11  5
32  12  5
33  13  5
34  14  6
15  39  8
15  43  8
23  28  5
30  36  6
35  37  5
38  39  8
38  40  8
31  4  6
40  41  8
41  43  8
41  44  8
42  46  8
42  47  8
43  45  8
44  48  8
45  49  8
46  50  8
47  51  8
48  49  8
21  5  5
50  52  8
51  52  8
24  6  5
22  7  5
26  9  6

$$$$
