5281435
     RDKit          2D

 27 28  0  0  1  0  0  0  0  0999 V2000
    3.5836   -1.9597    0.0000 O   0  0  0  0  0  0  0  0  0  0  0  0
    5.3958    0.8450    0.0000 O   0  0  0  0  0  0  0  0  0  0  0  0
    2.0000   -1.1550    0.0000 O   0  0  0  0  0  0  0  0  0  0  0  0
    4.5298   -4.6550    0.0000 O   0  0  0  0  0  0  0  0  0  0  0  0
    7.1279    0.8450    0.0000 O   0  0  0  0  0  0  0  0  0  0  0  0
    7.9939    2.3450    0.0000 O   0  0  0  0  0  0  0  0  0  0  0  0
    7.9939    4.3450    0.0000 O   0  0  0  0  0  0  0  0  0  0  0  0
    4.5298   -0.6550    0.0000 C   0  0  0  0  0  0  0  0  0  0  0  0
    5.3958   -0.1550    0.0000 C   0  0  0  0  0  0  0  0  0  0  0  0
    4.5298   -1.6550    0.0000 C   0  0  0  0  0  0  0  0  0  0  0  0
    6.2619   -0.6550    0.0000 C   0  0  0  0  0  0  0  0  0  0  0  0
    3.5836   -0.3503    0.0000 C   0  0  0  0  0  0  0  0  0  0  0  0
    5.3958   -2.1550    0.0000 C   0  0  0  0  0  0  0  0  0  0  0  0
    6.2619   -1.6550    0.0000 C   0  0  0  0  0  0  0  0  0  0  0  0
    3.0000   -1.1550    0.0000 C   0  0  0  0  0  0  0  0  0  0  0  0
    5.3958   -3.1550    0.0000 C   0  0  0  0  0  0  0  0  0  0  0  0
    6.2619   -3.6550    0.0000 C   0  0  0  0  0  0  0  0  0  0  0  0
    7.1279   -3.1550    0.0000 C   0  0  0  0  0  0  0  0  0  0  0  0
    7.1279   -2.1550    0.0000 C   0  0  0  0  0  0  0  0  0  0  0  0
    3.2729    0.6003    0.0000 C   0  0  0  0  0  0  0  0  0  0  0  0
    4.8053   -2.1851    0.0000 C   0  0  0  0  0  0  0  0  0  0  0  0
    4.5298   -3.6550    0.0000 C   0  0  0  0  0  0  0  0  0  0  0  0
    6.2619    1.3450    0.0000 C   0  0  0  0  0  0  0  0  0  0  0  0
    6.2619    2.3450    0.0000 C   0  0  0  0  0  0  0  0  0  0  0  0
    7.1279    2.8450    0.0000 C   0  0  0  0  0  0  0  0  0  0  0  0
    7.1279    3.8450    0.0000 C   0  0  0  0  0  0  0  0  0  0  0  0
    5.3958    2.8450    0.0000 C   0  0  0  0  0  0  0  0  0  0  0  0
 10  1  1  1
  1 15  1  0
  9  2  1  1
  2 23  1  0
  3 15  2  0
  4 22  1  0
  5 23  2  0
 25  6  1  6
  7 26  1  0
  8  9  1  0
  8 10  1  0
  8 12  1  6
  9 11  1  0
 10 13  1  0
 11 14  1  0
 12 15  1  0
 12 20  2  0
 13 16  2  0
 14 19  2  0
 14 21  1  0
 16 17  1  0
 16 22  1  0
 17 18  1  0
 18 19  1  0
 23 24  1  0
 24 25  1  0
 24 27  2  0
 25 26  1  0
M  END
>  <PUBCHEM_COMPOUND_CID>  (1) 
5281435

>  <PUBCHEM_COMPOUND_CANONICALIZED>  (1) 
1

>  <PUBCHEM_CACTVS_COMPLEXITY>  (1) 
688

>  <PUBCHEM_CACTVS_HBOND_ACCEPTOR>  (1) 
7

>  <PUBCHEM_CACTVS_HBOND_DONOR>  (1) 
3

>  <PUBCHEM_CACTVS_ROTATABLE_BOND>  (1) 
6

>  <PUBCHEM_CACTVS_SUBSKEYS>  (1) 
AAADceB4OAAAAAAAAAAAAAAAAAAAASAAAAAAAAAAAAAAAACAAAAAGgAACAAADRSggAICCAAABgCIAiDSCAAAAAAgAAAACAEAAEgBFBYAIQACUAAF4AAJMIPKyCCOAAAAAAAAAAAAAAAAAAAAAAAAAAAAAA==

>  <PUBCHEM_IUPAC_OPENEYE_NAME>  (1) 
[(3aR,4S,6E,10Z,11aR)-10-(hydroxymethyl)-6-methyl-3-methylene-2-oxo-3a,4,5,8,9,11a-hexahydrocyclodeca[b]furan-4-yl] (3R)-3,4-dihydroxy-2-methylene-butanoate

>  <PUBCHEM_IUPAC_CAS_NAME>  (1) 
(3R)-3,4-dihydroxy-2-methylenebutanoic acid [(3aR,4S,6E,10Z,11aR)-10-(hydroxymethyl)-6-methyl-3-methylene-2-oxo-3a,4,5,8,9,11a-hexahydrocyclodeca[b]furan-4-yl] ester

>  <PUBCHEM_IUPAC_NAME_MARKUP>  (1) 
[(3<I>a</I><I>R</I>,4<I>S</I>,6<I>E</I>,10<I>Z</I>,11<I>a</I><I>R</I>)-10-(hydroxymethyl)-6-methyl-3-methylidene-2-oxo-3<I>a</I>,4,5,8,9,11<I>a</I>-hexahydrocyclodeca[b]furan-4-yl] (3<I>R</I>)-3,4-dihydroxy-2-methylidenebutanoate

>  <PUBCHEM_IUPAC_NAME>  (1) 
[(3aR,4S,6E,10Z,11aR)-10-(hydroxymethyl)-6-methyl-3-methylidene-2-oxo-3a,4,5,8,9,11a-hexahydrocyclodeca[b]furan-4-yl] (3R)-3,4-dihydroxy-2-methylidenebutanoate

>  <PUBCHEM_IUPAC_SYSTEMATIC_NAME>  (1) 
[(3aR,4S,6E,10Z,11aR)-10-(hydroxymethyl)-6-methyl-3-methylidene-2-oxidanylidene-3a,4,5,8,9,11a-hexahydrocyclodeca[b]furan-4-yl] (3R)-2-methylidene-3,4-bis(oxidanyl)butanoate

>  <PUBCHEM_IUPAC_TRADITIONAL_NAME>  (1) 
2-[(1R)-1,2-dihydroxyethyl]acrylic acid [(3aR,4S,6E,10Z,11aR)-2-keto-6-methyl-3-methylene-10-methylol-3a,4,5,8,9,11a-hexahydrocyclodeca[b]furan-4-yl] ester

>  <PUBCHEM_IUPAC_INCHI>  (1) 
InChI=1S/C20H26O7/c1-11-5-4-6-14(9-21)8-17-18(13(3)20(25)27-17)16(7-11)26-19(24)12(2)15(23)10-22/h5,8,15-18,21-23H,2-4,6-7,9-10H2,1H3/b11-5+,14-8-/t15-,16-,17+,18+/m0/s1

>  <PUBCHEM_IUPAC_INCHIKEY>  (1) 
ZTDFZLVUIVPZDU-QGNHJMHWSA-N

>  <PUBCHEM_XLOGP3_AA>  (1) 
0.2

>  <PUBCHEM_EXACT_MASS>  (1) 
378.16785316

>  <PUBCHEM_MOLECULAR_FORMULA>  (1) 
C20H26O7

>  <PUBCHEM_MOLECULAR_WEIGHT>  (1) 
378.4

>  <PUBCHEM_OPENEYE_CAN_SMILES>  (1) 
CC1=CCCC(=CC2C(C(C1)OC(=O)C(=C)C(CO)O)C(=C)C(=O)O2)CO

>  <PUBCHEM_OPENEYE_ISO_SMILES>  (1) 
C/C/1=C\CC/C(=C/[C@@H]2[C@@H]([C@H](C1)OC(=O)C(=C)[C@H](CO)O)C(=C)C(=O)O2)/CO

>  <PUBCHEM_CACTVS_TPSA>  (1) 
113

>  <PUBCHEM_MONOISOTOPIC_WEIGHT>  (1) 
378.16785316

>  <PUBCHEM_TOTAL_CHARGE>  (1) 
0

>  <PUBCHEM_HEAVY_ATOM_COUNT>  (1) 
27

>  <PUBCHEM_ATOM_DEF_STEREO_COUNT>  (1) 
4

>  <PUBCHEM_ATOM_UDEF_STEREO_COUNT>  (1) 
0

>  <PUBCHEM_BOND_DEF_STEREO_COUNT>  (1) 
2

>  <PUBCHEM_BOND_UDEF_STEREO_COUNT>  (1) 
0

>  <PUBCHEM_ISOTOPIC_ATOM_COUNT>  (1) 
0

>  <PUBCHEM_COMPONENT_COUNT>  (1) 
1

>  <PUBCHEM_CACTVS_TAUTO_COUNT>  (1) 
-1

>  <PUBCHEM_COORDINATE_TYPE>  (1) 
1
5
255

>  <PUBCHEM_BONDANNOTATIONS>  (1) 
10  30  6
9  2  5
25  6  6
8  28  5

$$$$
