14130919
     RDKit          2D

 32 35  0  0  1  0  0  0  0  0999 V2000
    4.2690   -1.6796    0.0000 O   0  0  0  0  0  0  0  0  0  0  0  0
    6.0010   -1.6796    0.0000 O   0  0  0  0  0  0  0  0  0  0  0  0
    4.2690   -4.6796    0.0000 O   0  0  0  0  0  0  0  0  0  0  0  0
    2.5369   -3.6796    0.0000 O   0  0  0  0  0  0  0  0  0  0  0  0
    6.0010   -3.6796    0.0000 O   0  0  0  0  0  0  0  0  0  0  0  0
    7.7570    1.3829    0.0000 O   0  0  0  0  0  0  0  0  0  0  0  0
    4.2548    1.3996    0.0000 O   0  0  0  0  0  0  0  0  0  0  0  0
    6.9006    3.8863    0.0000 O   0  0  0  0  0  0  0  0  0  0  0  0
    5.1647    2.8930    0.0000 O   0  0  0  0  0  0  0  0  0  0  0  0
   11.2249    2.3696    0.0000 O   0  0  0  0  0  0  0  0  0  0  0  0
   11.2326    4.3696    0.0000 O   0  0  0  0  0  0  0  0  0  0  0  0
    4.2690   -3.6796    0.0000 C   0  0  0  0  0  0  0  0  0  0  0  0
    3.4030   -3.1796    0.0000 C   0  0  0  0  0  0  0  0  0  0  0  0
    5.1350   -3.1796    0.0000 C   0  0  0  0  0  0  0  0  0  0  0  0
    3.4030   -2.1796    0.0000 C   0  0  0  0  0  0  0  0  0  0  0  0
    5.1350   -2.1796    0.0000 C   0  0  0  0  0  0  0  0  0  0  0  0
    2.5369   -1.6796    0.0000 C   0  0  0  0  0  0  0  0  0  0  0  0
    6.0010   -0.6796    0.0000 C   0  0  0  0  0  0  0  0  0  0  0  0
    6.9011   -0.1553    0.0000 C   0  0  0  0  0  0  0  0  0  0  0  0
    5.1010   -0.1553    0.0000 C   0  0  0  0  0  0  0  0  0  0  0  0
    6.8891    0.8863    0.0000 C   0  0  0  0  0  0  0  0  0  0  0  0
    6.0250    1.3896    0.0000 C   0  0  0  0  0  0  0  0  0  0  0  0
    5.1130    0.8863    0.0000 C   0  0  0  0  0  0  0  0  0  0  0  0
    6.0288    2.3896    0.0000 C   0  0  0  0  0  0  0  0  0  0  0  0
    7.7609    2.3829    0.0000 C   0  0  0  0  0  0  0  0  0  0  0  0
    6.8968    2.8863    0.0000 C   0  0  0  0  0  0  0  0  0  0  0  0
    8.6288    2.8796    0.0000 C   0  0  0  0  0  0  0  0  0  0  0  0
    9.4929    2.3763    0.0000 C   0  0  0  0  0  0  0  0  0  0  0  0
    8.6327    3.8796    0.0000 C   0  0  0  0  0  0  0  0  0  0  0  0
   10.3608    2.8729    0.0000 C   0  0  0  0  0  0  0  0  0  0  0  0
    9.5006    4.3762    0.0000 C   0  0  0  0  0  0  0  0  0  0  0  0
   10.3647    3.8729    0.0000 C   0  0  0  0  0  0  0  0  0  0  0  0
  1 15  1  0
  1 16  1  0
  2 16  1  0
  2 18  1  0
  3 12  1  0
  4 13  1  0
  5 14  1  0
  6 21  1  0
  6 25  1  0
  7 23  1  0
  8 26  1  0
  9 24  2  0
 10 30  1  0
 11 32  1  0
 12 13  1  0
 12 14  1  0
 13 15  1  0
 14 16  1  0
 15 17  1  0
 18 19  1  0
 18 20  2  0
 19 21  2  0
 20 23  1  0
 21 22  1  0
 22 23  2  0
 22 24  1  0
 24 26  1  0
 25 26  2  0
 25 27  1  0
 27 28  2  0
 27 29  1  0
 28 30  1  0
 29 31  2  0
 30 32  2  0
 31 32  1  0
M  END
>  <PUBCHEM_COMPOUND_CID>  (1) 
14130919

>  <PUBCHEM_COMPOUND_CANONICALIZED>  (1) 
1

>  <PUBCHEM_CACTVS_COMPLEXITY>  (1) 
741

>  <PUBCHEM_CACTVS_HBOND_ACCEPTOR>  (1) 
11

>  <PUBCHEM_CACTVS_HBOND_DONOR>  (1) 
7

>  <PUBCHEM_CACTVS_ROTATABLE_BOND>  (1) 
3

>  <PUBCHEM_CACTVS_SUBSKEYS>  (1) 
AAADceB4PAAAAAAAAAAAAAAAAAAAAAAAAAA0YIEAAAAAAACBQAAAGgAACAAADBSwmAMyDoAABgCIAqBSAAICCAAkIAAIiAFGiMgdNzaGNRqieWGl4BUPuQfI7LzOIAABCAAIQABAAAIQABCAAAAAAAAAAA==

>  <PUBCHEM_IUPAC_OPENEYE_NAME>  (1) 
2-(3,4-dihydroxyphenyl)-3,5-dihydroxy-7-(3,4,5-trihydroxy-6-methyl-tetrahydropyran-2-yl)oxy-chromen-4-one

>  <PUBCHEM_IUPAC_CAS_NAME>  (1) 
2-(3,4-dihydroxyphenyl)-3,5-dihydroxy-7-[(3,4,5-trihydroxy-6-methyl-2-oxanyl)oxy]-1-benzopyran-4-one

>  <PUBCHEM_IUPAC_NAME_MARKUP>  (1) 
2-(3,4-dihydroxyphenyl)-3,5-dihydroxy-7-(3,4,5-trihydroxy-6-methyloxan-2-yl)oxychromen-4-one

>  <PUBCHEM_IUPAC_NAME>  (1) 
2-(3,4-dihydroxyphenyl)-3,5-dihydroxy-7-(3,4,5-trihydroxy-6-methyloxan-2-yl)oxychromen-4-one

>  <PUBCHEM_IUPAC_SYSTEMATIC_NAME>  (1) 
2-[3,4-bis(oxidanyl)phenyl]-7-[6-methyl-3,4,5-tris(oxidanyl)oxan-2-yl]oxy-3,5-bis(oxidanyl)chromen-4-one

>  <PUBCHEM_IUPAC_TRADITIONAL_NAME>  (1) 
2-(3,4-dihydroxyphenyl)-3,5-dihydroxy-7-(3,4,5-trihydroxy-6-methyl-tetrahydropyran-2-yl)oxy-chromone

>  <PUBCHEM_IUPAC_INCHI>  (1) 
InChI=1S/C21H20O11/c1-7-15(25)17(27)19(29)21(30-7)31-9-5-12(24)14-13(6-9)32-20(18(28)16(14)26)8-2-3-10(22)11(23)4-8/h2-7,15,17,19,21-25,27-29H,1H3

>  <PUBCHEM_IUPAC_INCHIKEY>  (1) 
QPHXPNUXTNHJOF-UHFFFAOYSA-N

>  <PUBCHEM_XLOGP3_AA>  (1) 
0.9

>  <PUBCHEM_EXACT_MASS>  (1) 
448.10056145

>  <PUBCHEM_MOLECULAR_FORMULA>  (1) 
C21H20O11

>  <PUBCHEM_MOLECULAR_WEIGHT>  (1) 
448.4

>  <PUBCHEM_OPENEYE_CAN_SMILES>  (1) 
CC1C(C(C(C(O1)OC2=CC(=C3C(=C2)OC(=C(C3=O)O)C4=CC(=C(C=C4)O)O)O)O)O)O

>  <PUBCHEM_OPENEYE_ISO_SMILES>  (1) 
CC1C(C(C(C(O1)OC2=CC(=C3C(=C2)OC(=C(C3=O)O)C4=CC(=C(C=C4)O)O)O)O)O)O

>  <PUBCHEM_CACTVS_TPSA>  (1) 
186

>  <PUBCHEM_MONOISOTOPIC_WEIGHT>  (1) 
448.10056145

>  <PUBCHEM_TOTAL_CHARGE>  (1) 
0

>  <PUBCHEM_HEAVY_ATOM_COUNT>  (1) 
32

>  <PUBCHEM_ATOM_DEF_STEREO_COUNT>  (1) 
0

>  <PUBCHEM_ATOM_UDEF_STEREO_COUNT>  (1) 
5

>  <PUBCHEM_BOND_DEF_STEREO_COUNT>  (1) 
0

>  <PUBCHEM_BOND_UDEF_STEREO_COUNT>  (1) 
0

>  <PUBCHEM_ISOTOPIC_ATOM_COUNT>  (1) 
0

>  <PUBCHEM_COMPONENT_COUNT>  (1) 
1

>  <PUBCHEM_CACTVS_TAUTO_COUNT>  (1) 
-1

>  <PUBCHEM_COORDINATE_TYPE>  (1) 
1
5
255

>  <PUBCHEM_BONDANNOTATIONS>  (1) 
15  17  3
18  19  8
18  20  8
19  21  8
16  2  3
20  23  8
21  22  8
22  23  8
22  24  8
24  26  8
25  26  8
27  28  8
27  29  8
28  30  8
29  31  8
12  3  3
30  32  8
31  32  8
13  4  3
14  5  3
6  21  8
6  25  8

$$$$
