285033
     RDKit          2D

 39 43  0  0  1  0  0  0  0  0999 V2000
    6.7227    0.0266    0.0000 O   0  0  0  0  0  0  0  0  0  0  0  0
    7.7518   -1.8819    0.0000 O   0  0  0  0  0  0  0  0  0  0  0  0
    5.7877    3.0617    0.0000 O   0  0  0  0  0  0  0  0  0  0  0  0
    6.8329    4.3724    0.0000 O   0  0  0  0  0  0  0  0  0  0  0  0
    6.4931   -1.6902    0.0000 O   0  0  0  0  0  0  0  0  0  0  0  0
    5.2537    0.3582    0.0000 O   0  0  0  0  0  0  0  0  0  0  0  0
    2.7580    0.5567    0.0000 O   0  0  0  0  0  0  0  0  0  0  0  0
    2.0822   -3.7578    0.0000 O   0  0  0  0  0  0  0  0  0  0  0  0
    4.3595    1.2163    0.0000 O   0  0  0  0  0  0  0  0  0  0  0  0
   10.2009    0.6144    0.0000 N   0  0  0  0  0  0  0  0  0  0  0  0
    9.2999    0.1805    0.0000 C   0  0  0  0  0  0  0  0  0  0  0  0
    8.3990    0.6144    0.0000 C   0  0  0  0  0  0  0  0  0  0  0  0
    9.9101   -0.6043    0.0000 C   0  0  0  0  0  0  0  0  0  0  0  0
    7.7138   -0.1059    0.0000 C   0  0  0  0  0  0  0  0  0  0  0  0
   11.1544    0.3331    0.0000 C   0  0  0  0  0  0  0  0  0  0  0  0
   11.0144   -0.4643    0.0000 C   0  0  0  0  0  0  0  0  0  0  0  0
    9.1639   -0.8042    0.0000 C   0  0  0  0  0  0  0  0  0  0  0  0
    8.1764    1.5893    0.0000 C   0  0  0  0  0  0  0  0  0  0  0  0
   10.4234    1.5893    0.0000 C   0  0  0  0  0  0  0  0  0  0  0  0
    8.1857   -0.9809    0.0000 C   0  0  0  0  0  0  0  0  0  0  0  0
    9.7999    2.3711    0.0000 C   0  0  0  0  0  0  0  0  0  0  0  0
    8.7999    2.3711    0.0000 C   0  0  0  0  0  0  0  0  0  0  0  0
    7.1442    1.7286    0.0000 C   0  0  0  0  0  0  0  0  0  0  0  0
    8.4344    3.3465    0.0000 C   0  0  0  0  0  0  0  0  0  0  0  0
    6.7562    2.6953    0.0000 C   0  0  0  0  0  0  0  0  0  0  0  0
    7.4056    3.5097    0.0000 C   0  0  0  0  0  0  0  0  0  0  0  0
    6.1123   -0.7655    0.0000 C   0  0  0  0  0  0  0  0  0  0  0  0
    5.1211   -0.6330    0.0000 C   0  0  0  0  0  0  0  0  0  0  0  0
    8.3151   -2.7081    0.0000 C   0  0  0  0  0  0  0  0  0  0  0  0
    4.9886   -1.6242    0.0000 C   0  0  0  0  0  0  0  0  0  0  0  0
    5.8350    4.0960    0.0000 C   0  0  0  0  0  0  0  0  0  0  0  0
    4.1300   -0.5005    0.0000 C   0  0  0  0  0  0  0  0  0  0  0  0
    4.0640   -2.0050    0.0000 C   0  0  0  0  0  0  0  0  0  0  0  0
    3.9314   -2.9962    0.0000 C   0  0  0  0  0  0  0  0  0  0  0  0
    3.0068   -3.3770    0.0000 C   0  0  0  0  0  0  0  0  0  0  0  0
    3.7491    0.4242    0.0000 C   0  0  0  0  0  0  0  0  0  0  0  0
    3.3876   -4.3017    0.0000 C   0  0  0  0  0  0  0  0  0  0  0  0
    2.6260   -2.4524    0.0000 C   0  0  0  0  0  0  0  0  0  0  0  0
    2.1476   -0.2355    0.0000 C   0  0  0  0  0  0  0  0  0  0  0  0
 14  1  1  1
  1 27  1  0
  2 20  1  0
  2 29  1  0
  3 25  1  0
  3 31  1  0
  4 26  1  0
  4 31  1  0
  5 27  2  0
 28  6  1  6
  7 36  1  0
  7 39  1  0
  8 35  1  0
  9 36  2  0
 10 11  1  0
 10 15  1  0
 10 19  1  0
 11 12  1  0
 11 13  1  6
 11 17  1  0
 12 14  1  0
 12 18  1  1
 13 16  1  0
 14 20  1  0
 15 16  1  0
 17 20  2  0
 18 22  2  0
 18 23  1  0
 19 21  1  0
 21 22  1  0
 22 24  1  0
 23 25  2  0
 24 26  2  0
 25 26  1  0
 27 28  1  0
 28 30  1  0
 28 32  1  0
 30 33  1  0
 32 36  1  0
 33 34  1  0
 34 35  1  0
 35 37  1  0
 35 38  1  0
M  END
>  <PUBCHEM_COMPOUND_CID>  (1) 
285033

>  <PUBCHEM_COMPOUND_CANONICALIZED>  (1) 
1

>  <PUBCHEM_CACTVS_COMPLEXITY>  (1) 
968

>  <PUBCHEM_CACTVS_HBOND_ACCEPTOR>  (1) 
10

>  <PUBCHEM_CACTVS_HBOND_DONOR>  (1) 
2

>  <PUBCHEM_CACTVS_ROTATABLE_BOND>  (1) 
11

>  <PUBCHEM_CACTVS_SUBSKEYS>  (1) 
AAADcfB6PAAAAAAAAAAAAAAAAAAAAWJEAAAwAAAABYAAAEixAAAAHgAACAAADdzhmAcyDoMABgCIAiDSCAKCCAAgIAAAiAFOiIgdJjaEsRumcCIn4BGPqAf7+P+OoAABAAAQQABAAAIAACCAAAAAAAAAAA==

>  <PUBCHEM_IUPAC_OPENEYE_NAME>  (1) 
O1-[(2S,3S,6R)-4-methoxy-16,18-dioxa-10-azapentacyclo[11.7.0.02,6.06,10.015,19]icosa-1(20),4,13,15(19)-tetraen-3-yl] O4-methyl (2R)-2-hydroxy-2-(4-hydroxy-4-methyl-pentyl)butanedioate

>  <PUBCHEM_IUPAC_CAS_NAME>  (1) 
(2R)-2-hydroxy-2-(4-hydroxy-4-methylpentyl)butanedioic acid O1-[(2S,3S,6R)-4-methoxy-16,18-dioxa-10-azapentacyclo[11.7.0.02,6.06,10.015,19]eicosa-1(20),4,13,15(19)-tetraen-3-yl] ester O4-methyl ester

>  <PUBCHEM_IUPAC_NAME_MARKUP>  (1) 
1-<I>O</I>-[(2<I>S</I>,3<I>S</I>,6<I>R</I>)-4-methoxy-16,18-dioxa-10-azapentacyclo[11.7.0.0<SUP>2,6</SUP>.0<SUP>6,10</SUP>.0<SUP>15,19</SUP>]icosa-1(20),4,13,15(19)-tetraen-3-yl] 4-<I>O</I>-methyl (2<I>R</I>)-2-hydroxy-2-(4-hydroxy-4-methylpentyl)butanedioate

>  <PUBCHEM_IUPAC_NAME>  (1) 
1-O-[(2S,3S,6R)-4-methoxy-16,18-dioxa-10-azapentacyclo[11.7.0.02,6.06,10.015,19]icosa-1(20),4,13,15(19)-tetraen-3-yl] 4-O-methyl (2R)-2-hydroxy-2-(4-hydroxy-4-methylpentyl)butanedioate

>  <PUBCHEM_IUPAC_SYSTEMATIC_NAME>  (1) 
O1-[(2S,3S,6R)-4-methoxy-16,18-dioxa-10-azapentacyclo[11.7.0.02,6.06,10.015,19]icosa-1(20),4,13,15(19)-tetraen-3-yl] O4-methyl (2R)-2-(4-methyl-4-oxidanyl-pentyl)-2-oxidanyl-butanedioate

>  <PUBCHEM_IUPAC_TRADITIONAL_NAME>  (1) 
(2R)-2-hydroxy-2-(4-hydroxy-4-methyl-pentyl)succinic acid O1-[(2S,3S,6R)-4-methoxy-16,18-dioxa-10-azapentacyclo[11.7.0.02,6.06,10.015,19]eicosa-1(20),4,13,15(19)-tetraen-3-yl] ester O4-methyl ester

>  <PUBCHEM_IUPAC_INCHI>  (1) 
InChI=1S/C29H39NO9/c1-27(2,33)8-5-10-29(34,16-23(31)36-4)26(32)39-25-22(35-3)15-28-9-6-11-30(28)12-7-18-13-20-21(38-17-37-20)14-19(18)24(25)28/h13-15,24-25,33-34H,5-12,16-17H2,1-4H3/t24-,25-,28+,29-/m1/s1

>  <PUBCHEM_IUPAC_INCHIKEY>  (1) 
HYFHYPWGAURHIV-JFIAXGOJSA-N

>  <PUBCHEM_XLOGP3>  (1) 
0.8

>  <PUBCHEM_EXACT_MASS>  (1) 
545.26248182

>  <PUBCHEM_MOLECULAR_FORMULA>  (1) 
C29H39NO9

>  <PUBCHEM_MOLECULAR_WEIGHT>  (1) 
545.6

>  <PUBCHEM_OPENEYE_CAN_SMILES>  (1) 
CC(C)(CCCC(CC(=O)OC)(C(=O)OC1C2C3=CC4=C(C=C3CCN5C2(CCC5)C=C1OC)OCO4)O)O

>  <PUBCHEM_OPENEYE_ISO_SMILES>  (1) 
CC(C)(CCC[C@@](CC(=O)OC)(C(=O)O[C@H]1[C@H]2C3=CC4=C(C=C3CCN5[C@@]2(CCC5)C=C1OC)OCO4)O)O

>  <PUBCHEM_CACTVS_TPSA>  (1) 
124

>  <PUBCHEM_MONOISOTOPIC_WEIGHT>  (1) 
545.26248182

>  <PUBCHEM_TOTAL_CHARGE>  (1) 
0

>  <PUBCHEM_HEAVY_ATOM_COUNT>  (1) 
39

>  <PUBCHEM_ATOM_DEF_STEREO_COUNT>  (1) 
4

>  <PUBCHEM_ATOM_UDEF_STEREO_COUNT>  (1) 
0

>  <PUBCHEM_BOND_DEF_STEREO_COUNT>  (1) 
0

>  <PUBCHEM_BOND_UDEF_STEREO_COUNT>  (1) 
0

>  <PUBCHEM_ISOTOPIC_ATOM_COUNT>  (1) 
0

>  <PUBCHEM_COMPONENT_COUNT>  (1) 
1

>  <PUBCHEM_CACTVS_TAUTO_COUNT>  (1) 
1

>  <PUBCHEM_COORDINATE_TYPE>  (1) 
1
5
255

>  <PUBCHEM_BONDANNOTATIONS>  (1) 
14  1  5
11  13  6
12  40  6
18  22  8
18  23  8
22  24  8
23  25  8
24  26  8
25  26  8
28  6  6

$$$$
