21582568
     RDKit          2D

 22 24  0  0  1  0  0  0  0  0999 V2000
    2.3038   -2.6273    0.0000 O   0  0  0  0  0  0  0  0  0  0  0  0
    6.4318    2.8599    0.0000 O   0  0  0  0  0  0  0  0  0  0  0  0
    4.6876   -1.2094    0.0000 C   0  0  0  0  0  0  0  0  0  0  0  0
    4.6876   -0.2094    0.0000 C   0  0  0  0  0  0  0  0  0  0  0  0
    3.7937   -1.7440    0.0000 C   0  0  0  0  0  0  0  0  0  0  0  0
    3.7937    0.3253    0.0000 C   0  0  0  0  0  0  0  0  0  0  0  0
    2.8876   -1.2302    0.0000 C   0  0  0  0  0  0  0  0  0  0  0  0
    5.5536   -1.7094    0.0000 C   0  0  0  0  0  0  0  0  0  0  0  0
    2.8876   -0.1885    0.0000 C   0  0  0  0  0  0  0  0  0  0  0  0
    5.5536    0.2906    0.0000 C   0  0  0  0  0  0  0  0  0  0  0  0
    6.4196   -1.2094    0.0000 C   0  0  0  0  0  0  0  0  0  0  0  0
    4.6876    0.7906    0.0000 C   0  0  0  0  0  0  0  0  0  0  0  0
    3.3037   -2.6158    0.0000 C   0  0  0  0  0  0  0  0  0  0  0  0
    4.3036   -2.6042    0.0000 C   0  0  0  0  0  0  0  0  0  0  0  0
    6.4196   -0.2094    0.0000 C   0  0  0  0  0  0  0  0  0  0  0  0
    5.5376    1.3322    0.0000 C   0  0  0  0  0  0  0  0  0  0  0  0
    7.3296    0.2975    0.0000 C   0  0  0  0  0  0  0  0  0  0  0  0
    7.3377    1.3391    0.0000 C   0  0  0  0  0  0  0  0  0  0  0  0
    6.4356    1.8599    0.0000 C   0  0  0  0  0  0  0  0  0  0  0  0
    8.2056    1.8357    0.0000 C   0  0  0  0  0  0  0  0  0  0  0  0
    9.0697    1.3324    0.0000 C   0  0  0  0  0  0  0  0  0  0  0  0
    8.2095    2.8357    0.0000 C   0  0  0  0  0  0  0  0  0  0  0  0
  1 13  1  0
  2 19  1  0
  3  4  1  0
  3  5  1  0
  3  8  1  1
  4  6  1  0
  4 10  1  0
  4 12  1  1
  5  7  1  0
  5 13  1  0
  5 14  1  1
  6  9  1  0
  7  9  1  0
  8 11  1  0
 10 15  2  0
 10 16  1  0
 11 15  1  0
 15 17  1  0
 16 19  2  0
 17 18  2  0
 18 19  1  0
 18 20  1  0
 20 21  1  0
 20 22  1  0
M  END
>  <PUBCHEM_COMPOUND_CID>  (1) 
21582568

>  <PUBCHEM_COMPOUND_CANONICALIZED>  (1) 
1

>  <PUBCHEM_CACTVS_COMPLEXITY>  (1) 
407

>  <PUBCHEM_CACTVS_HBOND_ACCEPTOR>  (1) 
2

>  <PUBCHEM_CACTVS_HBOND_DONOR>  (1) 
2

>  <PUBCHEM_CACTVS_ROTATABLE_BOND>  (1) 
2

>  <PUBCHEM_CACTVS_SUBSKEYS>  (1) 
AAADceB4MAAAAAAAAAAAAAAAAAAAAAAAAAAwYMAAAAAAAADBAAAAGgAACAAADwSgmAIyBoAAAgCAAiBCAAACAAAgIAAAiAAGCIgINiKCERKAcAAkwBEImAeAwPAP4AADAAAYAADAAAYAADAAAAAAAAAAAA==

>  <PUBCHEM_IUPAC_OPENEYE_NAME>  (1) 
(4bS,8R,8aR)-8-(hydroxymethyl)-2-isopropyl-4b,8-dimethyl-5,6,7,8a,9,10-hexahydrophenanthren-3-ol

>  <PUBCHEM_IUPAC_CAS_NAME>  (1) 
(4bS,8R,8aR)-8-(hydroxymethyl)-4b,8-dimethyl-2-propan-2-yl-5,6,7,8a,9,10-hexahydrophenanthren-3-ol

>  <PUBCHEM_IUPAC_NAME_MARKUP>  (1) 
(4<I>b</I><I>S</I>,8<I>R</I>,8<I>a</I><I>R</I>)-8-(hydroxymethyl)-4<I>b</I>,8-dimethyl-2-propan-2-yl-5,6,7,8<I>a</I>,9,10-hexahydrophenanthren-3-ol

>  <PUBCHEM_IUPAC_NAME>  (1) 
(4bS,8R,8aR)-8-(hydroxymethyl)-4b,8-dimethyl-2-propan-2-yl-5,6,7,8a,9,10-hexahydrophenanthren-3-ol

>  <PUBCHEM_IUPAC_SYSTEMATIC_NAME>  (1) 
(4bS,8R,8aR)-8-(hydroxymethyl)-4b,8-dimethyl-2-propan-2-yl-5,6,7,8a,9,10-hexahydrophenanthren-3-ol

>  <PUBCHEM_IUPAC_TRADITIONAL_NAME>  (1) 
(4bS,8R,8aR)-2-isopropyl-4b,8-dimethyl-8-methylol-5,6,7,8a,9,10-hexahydrophenanthren-3-ol

>  <PUBCHEM_IUPAC_INCHI>  (1) 
InChI=1S/C20H30O2/c1-13(2)15-10-14-6-7-18-19(3,12-21)8-5-9-20(18,4)16(14)11-17(15)22/h10-11,13,18,21-22H,5-9,12H2,1-4H3/t18-,19-,20+/m0/s1

>  <PUBCHEM_IUPAC_INCHIKEY>  (1) 
ZSMYLYMVTJVQIR-SLFFLAALSA-N

>  <PUBCHEM_XLOGP3_AA>  (1) 
5.3

>  <PUBCHEM_EXACT_MASS>  (1) 
302.224580195

>  <PUBCHEM_MOLECULAR_FORMULA>  (1) 
C20H30O2

>  <PUBCHEM_MOLECULAR_WEIGHT>  (1) 
302.5

>  <PUBCHEM_OPENEYE_CAN_SMILES>  (1) 
CC(C)C1=C(C=C2C(=C1)CCC3C2(CCCC3(C)CO)C)O

>  <PUBCHEM_OPENEYE_ISO_SMILES>  (1) 
CC(C)C1=C(C=C2C(=C1)CC[C@@H]3[C@@]2(CCC[C@@]3(C)CO)C)O

>  <PUBCHEM_CACTVS_TPSA>  (1) 
40.5

>  <PUBCHEM_MONOISOTOPIC_WEIGHT>  (1) 
302.224580195

>  <PUBCHEM_TOTAL_CHARGE>  (1) 
0

>  <PUBCHEM_HEAVY_ATOM_COUNT>  (1) 
22

>  <PUBCHEM_ATOM_DEF_STEREO_COUNT>  (1) 
3

>  <PUBCHEM_ATOM_UDEF_STEREO_COUNT>  (1) 
0

>  <PUBCHEM_BOND_DEF_STEREO_COUNT>  (1) 
0

>  <PUBCHEM_BOND_UDEF_STEREO_COUNT>  (1) 
0

>  <PUBCHEM_ISOTOPIC_ATOM_COUNT>  (1) 
0

>  <PUBCHEM_COMPONENT_COUNT>  (1) 
1

>  <PUBCHEM_CACTVS_TAUTO_COUNT>  (1) 
-1

>  <PUBCHEM_COORDINATE_TYPE>  (1) 
1
5
255

>  <PUBCHEM_BONDANNOTATIONS>  (1) 
10  15  8
10  16  8
15  17  8
16  19  8
17  18  8
18  19  8
3  23  6
4  12  5
5  14  5

$$$$
