2751794
     RDKit          2D

 23 25  0  0  1  0  0  0  0  0999 V2000
    3.7782    1.7000    0.0000 O   0  0  0  0  0  0  0  0  0  0  0  0
    7.3022   -0.3346    0.0000 O   0  0  0  0  0  0  0  0  0  0  0  0
    5.5442    2.7378    0.0000 O   0  0  0  0  0  0  0  0  0  0  0  0
    3.8000   -0.3314    0.0000 C   0  0  0  0  0  0  0  0  0  0  0  0
    3.8000   -1.3314    0.0000 C   0  0  0  0  0  0  0  0  0  0  0  0
    2.9061   -1.8661    0.0000 C   0  0  0  0  0  0  0  0  0  0  0  0
    2.9061    0.2032    0.0000 C   0  0  0  0  0  0  0  0  0  0  0  0
    2.0000   -1.3522    0.0000 C   0  0  0  0  0  0  0  0  0  0  0  0
    2.0000   -0.3106    0.0000 C   0  0  0  0  0  0  0  0  0  0  0  0
    4.6660    0.1686    0.0000 C   0  0  0  0  0  0  0  0  0  0  0  0
    3.8000    0.6686    0.0000 C   0  0  0  0  0  0  0  0  0  0  0  0
    4.6660   -1.8314    0.0000 C   0  0  0  0  0  0  0  0  0  0  0  0
    2.4161   -2.7378    0.0000 C   0  0  0  0  0  0  0  0  0  0  0  0
    3.4160   -2.7263    0.0000 C   0  0  0  0  0  0  0  0  0  0  0  0
    5.5321   -0.3314    0.0000 C   0  0  0  0  0  0  0  0  0  0  0  0
    5.5321   -1.3314    0.0000 C   0  0  0  0  0  0  0  0  0  0  0  0
    4.6500    1.2101    0.0000 C   0  0  0  0  0  0  0  0  0  0  0  0
    6.4421    0.1754    0.0000 C   0  0  0  0  0  0  0  0  0  0  0  0
    6.4501    1.2170    0.0000 C   0  0  0  0  0  0  0  0  0  0  0  0
    5.5480    1.7378    0.0000 C   0  0  0  0  0  0  0  0  0  0  0  0
    7.3180    1.7137    0.0000 C   0  0  0  0  0  0  0  0  0  0  0  0
    7.3219    2.7137    0.0000 C   0  0  0  0  0  0  0  0  0  0  0  0
    8.1821    1.2104    0.0000 C   0  0  0  0  0  0  0  0  0  0  0  0
  1 17  2  0
  2 18  1  0
  3 20  2  0
  4  5  1  0
  4  7  1  0
  4 10  1  0
  4 11  1  1
  5  6  1  1
  5 12  1  0
  6  8  1  0
  6 13  1  0
  6 14  1  0
  7  9  1  0
  8  9  1  0
 10 15  2  0
 10 17  1  0
 12 16  2  0
 15 16  1  0
 15 18  1  0
 17 20  1  0
 18 19  2  0
 19 20  1  0
 19 21  1  0
 21 22  1  0
 21 23  1  0
M  END
>  <PUBCHEM_COMPOUND_CID>  (1) 
2751794

>  <PUBCHEM_COMPOUND_CANONICALIZED>  (1) 
1

>  <PUBCHEM_CACTVS_COMPLEXITY>  (1) 
688

>  <PUBCHEM_CACTVS_HBOND_ACCEPTOR>  (1) 
3

>  <PUBCHEM_CACTVS_HBOND_DONOR>  (1) 
1

>  <PUBCHEM_CACTVS_ROTATABLE_BOND>  (1) 
1

>  <PUBCHEM_CACTVS_SUBSKEYS>  (1) 
AAADceB4MAAAAAAAAAAAAAAAAAAAAAAAAAAwQIAAAAAAAACAAAAAGgAACAAADwSAgAACAAAAAgCIAqBSAAAAAAAgIAAICAEAAEgIBBIAAQAAUAAAwAAIkQMIiMCPgAAAAAAAAAAAAAQAACAAAAAAAAAAAA==

>  <PUBCHEM_IUPAC_OPENEYE_NAME>  (1) 
(4bS,8aS)-1-hydroxy-2-isopropyl-4b,8,8-trimethyl-5,6,7,8a-tetrahydrophenanthrene-3,4-dione

>  <PUBCHEM_IUPAC_CAS_NAME>  (1) 
(4bS,8aS)-1-hydroxy-4b,8,8-trimethyl-2-propan-2-yl-5,6,7,8a-tetrahydrophenanthrene-3,4-dione

>  <PUBCHEM_IUPAC_NAME_MARKUP>  (1) 
(4<I>b</I><I>S</I>,8<I>a</I><I>S</I>)-1-hydroxy-4<I>b</I>,8,8-trimethyl-2-propan-2-yl-5,6,7,8<I>a</I>-tetrahydrophenanthrene-3,4-dione

>  <PUBCHEM_IUPAC_NAME>  (1) 
(4bS,8aS)-1-hydroxy-4b,8,8-trimethyl-2-propan-2-yl-5,6,7,8a-tetrahydrophenanthrene-3,4-dione

>  <PUBCHEM_IUPAC_SYSTEMATIC_NAME>  (1) 
(4bS,8aS)-4b,8,8-trimethyl-1-oxidanyl-2-propan-2-yl-5,6,7,8a-tetrahydrophenanthrene-3,4-dione

>  <PUBCHEM_IUPAC_TRADITIONAL_NAME>  (1) 
(4bS,8aS)-1-hydroxy-2-isopropyl-4b,8,8-trimethyl-5,6,7,8a-tetrahydrophenanthrene-3,4-quinone

>  <PUBCHEM_IUPAC_INCHI>  (1) 
InChI=1S/C20H26O3/c1-11(2)14-16(21)12-7-8-13-19(3,4)9-6-10-20(13,5)15(12)18(23)17(14)22/h7-8,11,13,21H,6,9-10H2,1-5H3/t13-,20-/m0/s1

>  <PUBCHEM_IUPAC_INCHIKEY>  (1) 
DLSQHYBGHVPMAE-RBZFPXEDSA-N

>  <PUBCHEM_XLOGP3_AA>  (1) 
4.2

>  <PUBCHEM_EXACT_MASS>  (1) 
314.18819469

>  <PUBCHEM_MOLECULAR_FORMULA>  (1) 
C20H26O3

>  <PUBCHEM_MOLECULAR_WEIGHT>  (1) 
314.4

>  <PUBCHEM_OPENEYE_CAN_SMILES>  (1) 
CC(C)C1=C(C2=C(C(=O)C1=O)C3(CCCC(C3C=C2)(C)C)C)O

>  <PUBCHEM_OPENEYE_ISO_SMILES>  (1) 
CC(C)C1=C(C2=C(C(=O)C1=O)[C@]3(CCCC([C@@H]3C=C2)(C)C)C)O

>  <PUBCHEM_CACTVS_TPSA>  (1) 
54.4

>  <PUBCHEM_MONOISOTOPIC_WEIGHT>  (1) 
314.18819469

>  <PUBCHEM_TOTAL_CHARGE>  (1) 
0

>  <PUBCHEM_HEAVY_ATOM_COUNT>  (1) 
23

>  <PUBCHEM_ATOM_DEF_STEREO_COUNT>  (1) 
2

>  <PUBCHEM_ATOM_UDEF_STEREO_COUNT>  (1) 
0

>  <PUBCHEM_BOND_DEF_STEREO_COUNT>  (1) 
0

>  <PUBCHEM_BOND_UDEF_STEREO_COUNT>  (1) 
0

>  <PUBCHEM_ISOTOPIC_ATOM_COUNT>  (1) 
0

>  <PUBCHEM_COMPONENT_COUNT>  (1) 
1

>  <PUBCHEM_CACTVS_TAUTO_COUNT>  (1) 
-1

>  <PUBCHEM_COORDINATE_TYPE>  (1) 
1
5
255

>  <PUBCHEM_BONDANNOTATIONS>  (1) 
4  11  5
5  24  6

$$$$
