169167
     RDKit          2D

 52 58  0  0  1  0  0  0  0  0999 V2000
   11.4007   -1.0218    0.0000 O   0  0  0  0  0  0  0  0  0  0  0  0
    7.6432   -1.0909    0.0000 O   0  0  0  0  0  0  0  0  0  0  0  0
    5.9237    0.9199    0.0000 O   0  0  0  0  0  0  0  0  0  0  0  0
    8.8086   -0.4918    0.0000 O   0  0  0  0  0  0  0  0  0  0  0  0
   10.5405    3.5573    0.0000 O   0  0  0  0  0  0  0  0  0  0  0  0
    9.0988    3.6212    0.0000 O   0  0  0  0  0  0  0  0  0  0  0  0
   12.3222    2.5469    0.0000 O   0  0  0  0  0  0  0  0  0  0  0  0
    4.3819   -2.3675    0.0000 O   0  0  0  0  0  0  0  0  0  0  0  0
    9.6119   -4.0328    0.0000 O   0  0  0  0  0  0  0  0  0  0  0  0
    7.2779    3.2055    0.0000 O   0  0  0  0  0  0  0  0  0  0  0  0
    7.1409   -4.5852    0.0000 O   0  0  0  0  0  0  0  0  0  0  0  0
   13.1513   -4.0874    0.0000 O   0  0  0  0  0  0  0  0  0  0  0  0
    4.3114    0.2871    0.0000 O   0  0  0  0  0  0  0  0  0  0  0  0
    2.2265    3.2287    0.0000 O   0  0  0  0  0  0  0  0  0  0  0  0
    5.4512    4.4943    0.0000 O   0  0  0  0  0  0  0  0  0  0  0  0
    3.4735    4.7924    0.0000 O   0  0  0  0  0  0  0  0  0  0  0  0
   10.5405   -0.5119    0.0000 C   0  0  0  0  0  0  0  0  0  0  0  0
    7.2779   -0.1601    0.0000 C   0  0  0  0  0  0  0  0  0  0  0  0
    6.2890   -0.0110    0.0000 C   0  0  0  0  0  0  0  0  0  0  0  0
    9.6687   -1.0018    0.0000 C   0  0  0  0  0  0  0  0  0  0  0  0
   10.5520    0.4881    0.0000 C   0  0  0  0  0  0  0  0  0  0  0  0
    5.6655   -0.7928    0.0000 C   0  0  0  0  0  0  0  0  0  0  0  0
    9.6572   -2.0017    0.0000 C   0  0  0  0  0  0  0  0  0  0  0  0
    7.9014    0.6218    0.0000 C   0  0  0  0  0  0  0  0  0  0  0  0
    9.6581    1.0227    0.0000 C   0  0  0  0  0  0  0  0  0  0  0  0
    6.0309   -1.7237    0.0000 C   0  0  0  0  0  0  0  0  0  0  0  0
    8.8763    0.3993    0.0000 C   0  0  0  0  0  0  0  0  0  0  0  0
   10.5174   -2.5117    0.0000 C   0  0  0  0  0  0  0  0  0  0  0  0
    9.6581    2.0227    0.0000 C   0  0  0  0  0  0  0  0  0  0  0  0
    7.0197   -1.8728    0.0000 C   0  0  0  0  0  0  0  0  0  0  0  0
   11.3891   -2.0218    0.0000 C   0  0  0  0  0  0  0  0  0  0  0  0
   11.4581    1.0019    0.0000 C   0  0  0  0  0  0  0  0  0  0  0  0
    7.4675    1.5227    0.0000 C   0  0  0  0  0  0  0  0  0  0  0  0
   10.5520    2.5574    0.0000 C   0  0  0  0  0  0  0  0  0  0  0  0
    8.8763    2.6462    0.0000 C   0  0  0  0  0  0  0  0  0  0  0  0
   11.4581    2.0436    0.0000 C   0  0  0  0  0  0  0  0  0  0  0  0
    5.3690   -2.5280    0.0000 C   0  0  0  0  0  0  0  0  0  0  0  0
   10.4893   -3.5530    0.0000 C   0  0  0  0  0  0  0  0  0  0  0  0
    7.9014    2.4237    0.0000 C   0  0  0  0  0  0  0  0  0  0  0  0
    7.4152   -2.8364    0.0000 C   0  0  0  0  0  0  0  0  0  0  0  0
   12.2932   -2.5391    0.0000 C   0  0  0  0  0  0  0  0  0  0  0  0
    5.7420   -3.5005    0.0000 C   0  0  0  0  0  0  0  0  0  0  0  0
   11.3811   -4.0911    0.0000 C   0  0  0  0  0  0  0  0  0  0  0  0
    6.7720   -3.6558    0.0000 C   0  0  0  0  0  0  0  0  0  0  0  0
   12.2892   -3.5807    0.0000 C   0  0  0  0  0  0  0  0  0  0  0  0
    4.9348    1.0689    0.0000 C   0  0  0  0  0  0  0  0  0  0  0  0
    4.5695    1.9998    0.0000 C   0  0  0  0  0  0  0  0  0  0  0  0
    5.1930    2.7816    0.0000 C   0  0  0  0  0  0  0  0  0  0  0  0
    3.5807    2.1488    0.0000 C   0  0  0  0  0  0  0  0  0  0  0  0
    3.2153    3.0797    0.0000 C   0  0  0  0  0  0  0  0  0  0  0  0
    4.8277    3.7125    0.0000 C   0  0  0  0  0  0  0  0  0  0  0  0
    3.8388    3.8615    0.0000 C   0  0  0  0  0  0  0  0  0  0  0  0
  1 17  1  0
  1 31  1  0
  2 18  1  0
  2 30  1  0
 19  3  1  1
  3 46  1  0
 20  4  1  1
  5 34  1  0
  6 35  1  0
  7 36  1  0
  8 37  1  0
  9 38  1  0
 10 39  2  0
 11 44  1  0
 12 45  1  0
 13 46  2  0
 14 50  1  0
 15 51  1  0
 16 52  1  0
 17 20  1  0
 17 21  1  1
 18 19  1  0
 18 24  1  1
 19 22  1  0
 20 23  1  0
 21 25  1  0
 21 32  2  0
 22 26  1  0
 23 28  1  0
 24 27  1  0
 24 33  2  0
 25 27  2  0
 25 29  1  0
 26 30  2  0
 26 37  1  0
 28 31  2  0
 28 38  1  0
 29 34  1  0
 29 35  2  0
 30 40  1  0
 31 41  1  0
 32 36  1  0
 33 39  1  0
 34 36  2  0
 35 39  1  0
 37 42  2  0
 38 43  2  0
 40 44  2  0
 41 45  2  0
 42 44  1  0
 43 45  1  0
 46 47  1  0
 47 48  2  0
 47 49  1  0
 48 51  1  0
 49 50  2  0
 50 52  1  0
 51 52  2  0
M  END
>  <PUBCHEM_COMPOUND_CID>  (1) 
169167

>  <PUBCHEM_COMPOUND_CANONICALIZED>  (1) 
1

>  <PUBCHEM_CACTVS_COMPLEXITY>  (1) 
1600

>  <PUBCHEM_CACTVS_HBOND_ACCEPTOR>  (1) 
16

>  <PUBCHEM_CACTVS_HBOND_DONOR>  (1) 
11

>  <PUBCHEM_CACTVS_ROTATABLE_BOND>  (1) 
5

>  <PUBCHEM_CACTVS_SUBSKEYS>  (1) 
AAADceB8PgAAAAAAAAAAAAAAAAAAAAAAAAA0aMECBAAAAACRUAAAGgAACAAADBSgmAIwDoAABgCIAqDSCAICCAAkIAAAiAFGiMgNNzKGNRqCeSGlwBULuYfK7PzOIAABCAAIQABAAAIQABCAAAAAAAAAAA==

>  <PUBCHEM_IUPAC_OPENEYE_NAME>  (1) 
[(2R,3R)-5,7-dihydroxy-2-[3,4,5-trihydroxy-6-oxo-1-[(2R,3R)-3,5,7-trihydroxychroman-2-yl]benzo[7]annulen-8-yl]chroman-3-yl] 3,4,5-trihydroxybenzoate

>  <PUBCHEM_IUPAC_CAS_NAME>  (1) 
3,4,5-trihydroxybenzoic acid [(2R,3R)-5,7-dihydroxy-2-[3,4,5-trihydroxy-6-oxo-1-[(2R,3R)-3,5,7-trihydroxy-3,4-dihydro-2H-1-benzopyran-2-yl]-8-benzo[7]annulenyl]-3,4-dihydro-2H-1-benzopyran-3-yl] ester

>  <PUBCHEM_IUPAC_NAME_MARKUP>  (1) 
[(2<I>R</I>,3<I>R</I>)-5,7-dihydroxy-2-[3,4,5-trihydroxy-6-oxo-1-[(2<I>R</I>,3<I>R</I>)-3,5,7-trihydroxy-3,4-dihydro-2<I>H</I>-chromen-2-yl]benzo[7]annulen-8-yl]-3,4-dihydro-2<I>H</I>-chromen-3-yl] 3,4,5-trihydroxybenzoate

>  <PUBCHEM_IUPAC_NAME>  (1) 
[(2R,3R)-5,7-dihydroxy-2-[3,4,5-trihydroxy-6-oxo-1-[(2R,3R)-3,5,7-trihydroxy-3,4-dihydro-2H-chromen-2-yl]benzo[7]annulen-8-yl]-3,4-dihydro-2H-chromen-3-yl] 3,4,5-trihydroxybenzoate

>  <PUBCHEM_IUPAC_SYSTEMATIC_NAME>  (1) 
[(2R,3R)-5,7-bis(oxidanyl)-2-[3,4,5-tris(oxidanyl)-6-oxidanylidene-1-[(2R,3R)-3,5,7-tris(oxidanyl)-3,4-dihydro-2H-chromen-2-yl]benzo[7]annulen-8-yl]-3,4-dihydro-2H-chromen-3-yl] 3,4,5-tris(oxidanyl)benzoate

>  <PUBCHEM_IUPAC_TRADITIONAL_NAME>  (1) 
3,4,5-trihydroxybenzoic acid [(2R,3R)-5,7-dihydroxy-2-[3,4,5-trihydroxy-6-keto-1-[(2R,3R)-3,5,7-trihydroxychroman-2-yl]benzocyclohepten-8-yl]chroman-3-yl] ester

>  <PUBCHEM_IUPAC_INCHI>  (1) 
InChI=1S/C36H28O16/c37-14-5-20(39)18-10-26(45)35(51-27(18)7-14)17-9-25(44)33(48)30-16(17)1-12(2-24(43)32(30)47)34-29(11-19-21(40)6-15(38)8-28(19)50-34)52-36(49)13-3-22(41)31(46)23(42)4-13/h1-9,26,29,34-35,37-42,44-46,48H,10-11H2,(H,43,47)/t26-,29-,34-,35-/m1/s1

>  <PUBCHEM_IUPAC_INCHIKEY>  (1) 
KMJPKUVSXFVQGZ-WQLSNUALSA-N

>  <PUBCHEM_XLOGP3_AA>  (1) 
1.8

>  <PUBCHEM_EXACT_MASS>  (1) 
716.13773480

>  <PUBCHEM_MOLECULAR_FORMULA>  (1) 
C36H28O16

>  <PUBCHEM_MOLECULAR_WEIGHT>  (1) 
716.6

>  <PUBCHEM_OPENEYE_CAN_SMILES>  (1) 
C1C(C(OC2=CC(=CC(=C21)O)O)C3=CC(=C(C4=C(C(=O)C=C(C=C34)C5C(CC6=C(C=C(C=C6O5)O)O)OC(=O)C7=CC(=C(C(=C7)O)O)O)O)O)O)O

>  <PUBCHEM_OPENEYE_ISO_SMILES>  (1) 
C1[C@H]([C@H](OC2=CC(=CC(=C21)O)O)C3=CC(=C(C4=C(C(=O)C=C(C=C34)[C@@H]5[C@@H](CC6=C(C=C(C=C6O5)O)O)OC(=O)C7=CC(=C(C(=C7)O)O)O)O)O)O)O

>  <PUBCHEM_CACTVS_TPSA>  (1) 
284

>  <PUBCHEM_MONOISOTOPIC_WEIGHT>  (1) 
716.13773480

>  <PUBCHEM_TOTAL_CHARGE>  (1) 
0

>  <PUBCHEM_HEAVY_ATOM_COUNT>  (1) 
52

>  <PUBCHEM_ATOM_DEF_STEREO_COUNT>  (1) 
4

>  <PUBCHEM_ATOM_UDEF_STEREO_COUNT>  (1) 
0

>  <PUBCHEM_BOND_DEF_STEREO_COUNT>  (1) 
0

>  <PUBCHEM_BOND_UDEF_STEREO_COUNT>  (1) 
0

>  <PUBCHEM_ISOTOPIC_ATOM_COUNT>  (1) 
0

>  <PUBCHEM_COMPONENT_COUNT>  (1) 
1

>  <PUBCHEM_CACTVS_TAUTO_COUNT>  (1) 
-1

>  <PUBCHEM_COORDINATE_TYPE>  (1) 
1
5
255

>  <PUBCHEM_BONDANNOTATIONS>  (1) 
17  53  6
18  24  5
21  25  8
21  32  8
24  27  8
24  33  8
25  27  8
25  29  8
26  30  8
26  37  8
28  31  8
28  38  8
29  34  8
29  35  8
19  3  5
30  40  8
31  41  8
32  36  8
33  39  8
34  36  8
35  39  8
37  42  8
38  43  8
20  4  5
40  44  8
41  45  8
42  44  8
43  45  8
47  48  8
47  49  8
48  51  8
49  50  8
50  52  8
51  52  8

$$$$
