6476031
     RDKit          2D

 79 86  0  0  1  0  0  0  0  0999 V2000
    5.0578    4.4072    0.0000 O   0  0  0  0  0  0  0  0  0  0  0  0
    7.7331   -3.3450    0.0000 O   0  0  0  0  0  0  0  0  0  0  0  0
    5.9577    6.0096    0.0000 O   0  0  0  0  0  0  0  0  0  0  0  0
    7.7732    7.0484    0.0000 O   0  0  0  0  0  0  0  0  0  0  0  0
    5.3338    5.7080    0.0000 O   0  0  0  0  0  0  0  0  0  0  0  0
    5.3023   -0.9213    0.0000 O   0  0  0  0  0  0  0  0  0  0  0  0
    6.0010   -3.3450    0.0000 O   0  0  0  0  0  0  0  0  0  0  0  0
    7.7331   -5.3450    0.0000 O   0  0  0  0  0  0  0  0  0  0  0  0
    6.8237    7.5096    0.0000 O   0  0  0  0  0  0  0  0  0  0  0  0
    9.5052    7.0350    0.0000 O   0  0  0  0  0  0  0  0  0  0  0  0
    6.0010   -6.3450    0.0000 O   0  0  0  0  0  0  0  0  0  0  0  0
    4.2690   -5.3450    0.0000 O   0  0  0  0  0  0  0  0  0  0  0  0
    8.5991   -3.8450    0.0000 O   0  0  0  0  0  0  0  0  0  0  0  0
    4.2690   -2.3450    0.0000 O   0  0  0  0  0  0  0  0  0  0  0  0
    3.4030   -3.8450    0.0000 O   0  0  0  0  0  0  0  0  0  0  0  0
    5.1350   -6.8450    0.0000 O   0  0  0  0  0  0  0  0  0  0  0  0
    9.4651   -6.3450    0.0000 O   0  0  0  0  0  0  0  0  0  0  0  0
   11.1972   -5.3450    0.0000 O   0  0  0  0  0  0  0  0  0  0  0  0
   11.1972   -3.3450    0.0000 O   0  0  0  0  0  0  0  0  0  0  0  0
    2.5369   -6.3450    0.0000 O   0  0  0  0  0  0  0  0  0  0  0  0
    2.5369   -8.3450    0.0000 O   0  0  0  0  0  0  0  0  0  0  0  0
   10.3312   -1.8450    0.0000 O   0  0  0  0  0  0  0  0  0  0  0  0
    4.2690   -9.3450    0.0000 O   0  0  0  0  0  0  0  0  0  0  0  0
    6.0010   -9.3450    0.0000 O   0  0  0  0  0  0  0  0  0  0  0  0
    6.8320    1.3553    0.0000 C   0  0  0  0  0  0  0  0  0  0  0  0
    7.6961    0.8519    0.0000 C   0  0  0  0  0  0  0  0  0  0  0  0
    7.7082   -0.1896    0.0000 C   0  0  0  0  0  0  0  0  0  0  0  0
    6.8359    2.3552    0.0000 C   0  0  0  0  0  0  0  0  0  0  0  0
    6.8081   -0.7139    0.0000 C   0  0  0  0  0  0  0  0  0  0  0  0
    5.9201    0.8519    0.0000 C   0  0  0  0  0  0  0  0  0  0  0  0
    7.7038    2.8519    0.0000 C   0  0  0  0  0  0  0  0  0  0  0  0
    7.7239    3.8934    0.0000 C   0  0  0  0  0  0  0  0  0  0  0  0
    6.8279    4.4246    0.0000 C   0  0  0  0  0  0  0  0  0  0  0  0
    5.9080   -0.1896    0.0000 C   0  0  0  0  0  0  0  0  0  0  0  0
    6.7956   -1.7988    0.0000 C   0  0  0  0  0  0  0  0  0  0  0  0
    5.9278    2.8656    0.0000 C   0  0  0  0  0  0  0  0  0  0  0  0
    8.5641    1.3486    0.0000 C   0  0  0  0  0  0  0  0  0  0  0  0
    8.6581   -0.7139    0.0000 C   0  0  0  0  0  0  0  0  0  0  0  0
    5.9238    3.9072    0.0000 C   0  0  0  0  0  0  0  0  0  0  0  0
    5.8479    1.5327    0.0000 C   0  0  0  0  0  0  0  0  0  0  0  0
    7.7331   -2.3450    0.0000 C   0  0  0  0  0  0  0  0  0  0  0  0
    8.5679    2.3486    0.0000 C   0  0  0  0  0  0  0  0  0  0  0  0
    8.5723    0.3137    0.0000 C   0  0  0  0  0  0  0  0  0  0  0  0
    8.6778    4.4103    0.0000 C   0  0  0  0  0  0  0  0  0  0  0  0
    8.6706   -1.7988    0.0000 C   0  0  0  0  0  0  0  0  0  0  0  0
    5.8504    2.1854    0.0000 C   0  0  0  0  0  0  0  0  0  0  0  0
    6.8237    5.5096    0.0000 C   0  0  0  0  0  0  0  0  0  0  0  0
    8.6987    5.4951    0.0000 C   0  0  0  0  0  0  0  0  0  0  0  0
    7.7654    6.0484    0.0000 C   0  0  0  0  0  0  0  0  0  0  0  0
    5.9677    4.9345    0.0000 C   0  0  0  0  0  0  0  0  0  0  0  0
    5.7956   -1.7911    0.0000 C   0  0  0  0  0  0  0  0  0  0  0  0
    6.2889   -2.6610    0.0000 C   0  0  0  0  0  0  0  0  0  0  0  0
    9.6986    5.4797    0.0000 C   0  0  0  0  0  0  0  0  0  0  0  0
    9.2120    6.3533    0.0000 C   0  0  0  0  0  0  0  0  0  0  0  0
    6.8671   -3.8450    0.0000 C   0  0  0  0  0  0  0  0  0  0  0  0
    5.9577    7.0096    0.0000 C   0  0  0  0  0  0  0  0  0  0  0  0
    6.8671   -4.8450    0.0000 C   0  0  0  0  0  0  0  0  0  0  0  0
    8.6430    7.5417    0.0000 C   0  0  0  0  0  0  0  0  0  0  0  0
    6.0010   -5.3450    0.0000 C   0  0  0  0  0  0  0  0  0  0  0  0
    5.1350   -3.8450    0.0000 C   0  0  0  0  0  0  0  0  0  0  0  0
    5.1350   -4.8450    0.0000 C   0  0  0  0  0  0  0  0  0  0  0  0
    5.0917    7.5096    0.0000 C   0  0  0  0  0  0  0  0  0  0  0  0
    8.6507    8.5417    0.0000 C   0  0  0  0  0  0  0  0  0  0  0  0
    8.5991   -4.8450    0.0000 C   0  0  0  0  0  0  0  0  0  0  0  0
    4.2690   -3.3450    0.0000 C   0  0  0  0  0  0  0  0  0  0  0  0
    7.7886    9.0483    0.0000 C   0  0  0  0  0  0  0  0  0  0  0  0
    9.5206    9.0350    0.0000 C   0  0  0  0  0  0  0  0  0  0  0  0
    9.4651   -5.3450    0.0000 C   0  0  0  0  0  0  0  0  0  0  0  0
    4.2690   -6.3450    0.0000 C   0  0  0  0  0  0  0  0  0  0  0  0
   10.3312   -4.8450    0.0000 C   0  0  0  0  0  0  0  0  0  0  0  0
   10.3827    8.5283    0.0000 C   0  0  0  0  0  0  0  0  0  0  0  0
    9.4651   -3.3450    0.0000 C   0  0  0  0  0  0  0  0  0  0  0  0
   10.3312   -3.8450    0.0000 C   0  0  0  0  0  0  0  0  0  0  0  0
    3.4030   -6.8450    0.0000 C   0  0  0  0  0  0  0  0  0  0  0  0
    3.4030   -7.8450    0.0000 C   0  0  0  0  0  0  0  0  0  0  0  0
    5.1350   -7.8450    0.0000 C   0  0  0  0  0  0  0  0  0  0  0  0
    9.4651   -2.3450    0.0000 C   0  0  0  0  0  0  0  0  0  0  0  0
    4.2690   -8.3450    0.0000 C   0  0  0  0  0  0  0  0  0  0  0  0
    6.0010   -8.3450    0.0000 C   0  0  0  0  0  0  0  0  0  0  0  0
 39  1  1  1
 41  2  1  6
 55  2  1  1
 47  3  1  1
  3 56  1  0
 49  4  1  6
  4 58  1  0
  5 50  1  0
  6 51  1  0
  7 55  1  0
  7 60  1  0
 57  8  1  6
 64  8  1  6
  9 56  2  0
 10 58  2  0
 59 11  1  1
 61 12  1  6
 69 12  1  6
 13 64  1  0
 13 72  1  0
 14 65  1  0
 15 65  2  0
 16 69  1  0
 16 76  1  0
 68 17  1  1
 70 18  1  6
 73 19  1  1
 74 20  1  1
 75 21  1  6
 22 77  1  0
 78 23  1  1
 24 79  1  0
 25 26  1  0
 25 28  1  0
 25 30  1  0
 25 40  1  6
 26 27  1  0
 26 37  1  6
 27 29  1  0
 27 38  1  0
 27 43  1  6
 28 31  1  0
 28 36  1  0
 28 46  1  1
 29 34  1  6
 29 35  1  0
 30 34  1  0
 31 32  1  0
 31 42  2  0
 32 33  1  0
 32 44  1  1
 33 39  1  0
 33 47  1  0
 33 50  1  6
 35 41  1  0
 35 51  1  0
 35 52  1  1
 36 39  1  0
 37 42  1  0
 38 45  1  0
 41 45  1  0
 44 48  1  0
 47 49  1  0
 48 49  1  0
 48 53  1  0
 48 54  1  0
 55 57  1  0
 56 62  1  0
 57 59  1  0
 58 63  1  0
 59 61  1  0
 60 61  1  0
 60 65  1  1
 63 66  1  0
 63 67  2  0
 64 68  1  0
 67 71  1  0
 68 70  1  0
 69 74  1  0
 70 73  1  0
 72 73  1  0
 72 77  1  6
 74 75  1  0
 75 78  1  0
 76 78  1  0
 76 79  1  6
M  END
>  <PUBCHEM_COMPOUND_CID>  (1) 
6476031

>  <PUBCHEM_COMPOUND_CANONICALIZED>  (1) 
1

>  <PUBCHEM_CACTVS_COMPLEXITY>  (1) 
2300

>  <PUBCHEM_CACTVS_HBOND_ACCEPTOR>  (1) 
24

>  <PUBCHEM_CACTVS_HBOND_DONOR>  (1) 
13

>  <PUBCHEM_CACTVS_ROTATABLE_BOND>  (1) 
16

>  <PUBCHEM_CACTVS_SUBSKEYS>  (1) 
AAADcfB8PgAAAAAAAAAAAAAAAAAAAAAAAAA0aNGCAAAAAADAAAAAGgAACAAADxSwgAMCCAAABgCIAiDSCAIAAAAgAAAACAFAAEgRFBYAIQQiUAAFoAAPIYPK7PxPgAAAAAAAAADAAAYAADCAAAAAAAAAAA==

>  <PUBCHEM_IUPAC_OPENEYE_NAME>  (1) 
(2S,3S,4S,5R,6R)-6-[[(3S,4S,4aR,6aR,6bS,8R,8aR,9R,10R,12aS,14aR,14bR)-9-acetoxy-8-hydroxy-4,8a-bis(hydroxymethyl)-4,6a,6b,11,11,14b-hexamethyl-10-[(Z)-2-methylbut-2-enoyl]oxy-1,2,3,4a,5,6,7,8,9,10,12,12a,14,14a-tetradecahydropicen-3-yl]oxy]-4-hydroxy-3,5-bis[[(2S,3R,4S,5S,6R)-3,4,5-trihydroxy-6-(hydroxymethyl)tetrahydropyran-2-yl]oxy]tetrahydropyran-2-carboxylic acid

>  <PUBCHEM_IUPAC_CAS_NAME>  (1) 
(2S,3S,4S,5R,6R)-6-[[(3S,4S,4aR,6aR,6bS,8R,8aR,9R,10R,12aS,14aR,14bR)-9-acetyloxy-8-hydroxy-4,8a-bis(hydroxymethyl)-4,6a,6b,11,11,14b-hexamethyl-10-[(Z)-2-methyl-1-oxobut-2-enoxy]-1,2,3,4a,5,6,7,8,9,10,12,12a,14,14a-tetradecahydropicen-3-yl]oxy]-4-hydroxy-3,5-bis[[(2S,3R,4S,5S,6R)-3,4,5-trihydroxy-6-(hydroxymethyl)-2-oxanyl]oxy]-2-oxanecarboxylic acid

>  <PUBCHEM_IUPAC_NAME_MARKUP>  (1) 
(2<I>S</I>,3<I>S</I>,4<I>S</I>,5<I>R</I>,6<I>R</I>)-6-[[(3<I>S</I>,4<I>S</I>,4<I>a</I><I>R</I>,6<I>a</I><I>R</I>,6<I>b</I><I>S</I>,8<I>R</I>,8<I>a</I><I>R</I>,9<I>R</I>,10<I>R</I>,12<I>a</I><I>S</I>,14<I>a</I><I>R</I>,14<I>b</I><I>R</I>)-9-acetyloxy-8-hydroxy-4,8<I>a</I>-bis(hydroxymethyl)-4,6<I>a</I>,6<I>b</I>,11,11,14<I>b</I>-hexamethyl-10-[(<I>Z</I>)-2-methylbut-2-enoyl]oxy-1,2,3,4<I>a</I>,5,6,7,8,9,10,12,12<I>a</I>,14,14<I>a</I>-tetradecahydropicen-3-yl]oxy]-4-hydroxy-3,5-bis[[(2<I>S</I>,3<I>R</I>,4<I>S</I>,5<I>S</I>,6<I>R</I>)-3,4,5-trihydroxy-6-(hydroxymethyl)oxan-2-yl]oxy]oxane-2-carboxylic acid

>  <PUBCHEM_IUPAC_NAME>  (1) 
(2S,3S,4S,5R,6R)-6-[[(3S,4S,4aR,6aR,6bS,8R,8aR,9R,10R,12aS,14aR,14bR)-9-acetyloxy-8-hydroxy-4,8a-bis(hydroxymethyl)-4,6a,6b,11,11,14b-hexamethyl-10-[(Z)-2-methylbut-2-enoyl]oxy-1,2,3,4a,5,6,7,8,9,10,12,12a,14,14a-tetradecahydropicen-3-yl]oxy]-4-hydroxy-3,5-bis[[(2S,3R,4S,5S,6R)-3,4,5-trihydroxy-6-(hydroxymethyl)oxan-2-yl]oxy]oxane-2-carboxylic acid

>  <PUBCHEM_IUPAC_SYSTEMATIC_NAME>  (1) 
(2S,3S,4S,5R,6R)-6-[[(3S,4S,4aR,6aR,6bS,8R,8aR,9R,10R,12aS,14aR,14bR)-9-acetyloxy-4,8a-bis(hydroxymethyl)-4,6a,6b,11,11,14b-hexamethyl-10-[(Z)-2-methylbut-2-enoyl]oxy-8-oxidanyl-1,2,3,4a,5,6,7,8,9,10,12,12a,14,14a-tetradecahydropicen-3-yl]oxy]-3,5-bis[[(2S,3R,4S,5S,6R)-6-(hydroxymethyl)-3,4,5-tris(oxidanyl)oxan-2-yl]oxy]-4-oxidanyl-oxane-2-carboxylic acid

>  <PUBCHEM_IUPAC_TRADITIONAL_NAME>  (1) 
(2S,3S,4S,5R,6R)-6-[[(3S,4S,4aR,6aR,6bS,8R,8aR,9R,10R,12aS,14aR,14bR)-9-acetoxy-8-hydroxy-4,6a,6b,11,11,14b-hexamethyl-10-[(Z)-2-methylbut-2-enoyl]oxy-4,8a-dimethylol-1,2,3,4a,5,6,7,8,9,10,12,12a,14,14a-tetradecahydropicen-3-yl]oxy]-4-hydroxy-3,5-bis[[(2S,3R,4S,5S,6R)-3,4,5-trihydroxy-6-methylol-tetrahydropyran-2-yl]oxy]tetrahydropyran-2-carboxylic acid

>  <PUBCHEM_IUPAC_INCHI>  (1) 
InChI=1S/C55H86O24/c1-10-23(2)46(71)79-43-44(72-24(3)60)55(22-59)26(17-50(43,4)5)25-11-12-30-51(6)15-14-32(52(7,21-58)29(51)13-16-53(30,8)54(25,9)18-31(55)61)75-49-41(77-48-38(67)36(65)34(63)28(20-57)74-48)39(68)40(42(78-49)45(69)70)76-47-37(66)35(64)33(62)27(19-56)73-47/h10-11,26-44,47-49,56-59,61-68H,12-22H2,1-9H3,(H,69,70)/b23-10-/t26-,27+,28+,29+,30+,31+,32-,33+,34+,35-,36-,37+,38+,39-,40-,41+,42-,43-,44-,47-,48-,49+,51-,52+,53+,54+,55-/m0/s1

>  <PUBCHEM_IUPAC_INCHIKEY>  (1) 
AXNVHPCVMSNXNP-OXPBSUTMSA-N

>  <PUBCHEM_XLOGP3_AA>  (1) 
0.7

>  <PUBCHEM_EXACT_MASS>  (1) 
1130.55090361

>  <PUBCHEM_MOLECULAR_FORMULA>  (1) 
C55H86O24

>  <PUBCHEM_MOLECULAR_WEIGHT>  (1) 
1131.3

>  <PUBCHEM_OPENEYE_CAN_SMILES>  (1) 
CC=C(C)C(=O)OC1C(C2(C(CC1(C)C)C3=CCC4C5(CCC(C(C5CCC4(C3(CC2O)C)C)(C)CO)OC6C(C(C(C(O6)C(=O)O)OC7C(C(C(C(O7)CO)O)O)O)O)OC8C(C(C(C(O8)CO)O)O)O)C)CO)OC(=O)C

>  <PUBCHEM_OPENEYE_ISO_SMILES>  (1) 
C/C=C(/C)\C(=O)O[C@H]1[C@@H]([C@@]2([C@@H](C[C@@]3(C(=CC[C@H]4[C@]3(CC[C@@H]5[C@@]4(CC[C@@H]([C@]5(C)CO)O[C@H]6[C@@H]([C@H]([C@@H]([C@H](O6)C(=O)O)O[C@H]7[C@@H]([C@H]([C@@H]([C@H](O7)CO)O)O)O)O)O[C@H]8[C@@H]([C@H]([C@@H]([C@H](O8)CO)O)O)O)C)C)[C@@H]2CC1(C)C)C)O)CO)OC(=O)C

>  <PUBCHEM_CACTVS_TPSA>  (1) 
388

>  <PUBCHEM_MONOISOTOPIC_WEIGHT>  (1) 
1130.55090361

>  <PUBCHEM_TOTAL_CHARGE>  (1) 
0

>  <PUBCHEM_HEAVY_ATOM_COUNT>  (1) 
79

>  <PUBCHEM_ATOM_DEF_STEREO_COUNT>  (1) 
27

>  <PUBCHEM_ATOM_UDEF_STEREO_COUNT>  (1) 
0

>  <PUBCHEM_BOND_DEF_STEREO_COUNT>  (1) 
1

>  <PUBCHEM_BOND_UDEF_STEREO_COUNT>  (1) 
0

>  <PUBCHEM_ISOTOPIC_ATOM_COUNT>  (1) 
0

>  <PUBCHEM_COMPONENT_COUNT>  (1) 
1

>  <PUBCHEM_CACTVS_TAUTO_COUNT>  (1) 
-1

>  <PUBCHEM_COORDINATE_TYPE>  (1) 
1
5
255

>  <PUBCHEM_BONDANNOTATIONS>  (1) 
39  1  5
59  11  5
61  12  6
69  12  6
68  17  5
70  18  6
73  19  5
41  2  6
55  2  5
74  20  5
75  21  6
78  23  5
25  40  6
26  80  5
27  43  6
28  46  5
29  81  5
47  3  5
32  84  6
33  50  6
35  52  5
49  4  6
60  65  5
72  77  6
76  79  6
57  8  6
64  8  6

$$$$
