11787114
     RDKit          2D

 47 52  0  0  1  0  0  0  0  0999 V2000
    9.8536    0.7276    0.0000 O   0  0  0  0  0  0  0  0  0  0  0  0
    8.5445   -1.3990    0.0000 O   0  0  0  0  0  0  0  0  0  0  0  0
    9.0768   -2.5659    0.0000 O   0  0  0  0  0  0  0  0  0  0  0  0
   10.8383   -3.4775    0.0000 O   0  0  0  0  0  0  0  0  0  0  0  0
    7.2311   -1.4102    0.0000 O   0  0  0  0  0  0  0  0  0  0  0  0
   12.2396   -2.4594    0.0000 O   0  0  0  0  0  0  0  0  0  0  0  0
    6.4818    2.0494    0.0000 O   0  0  0  0  0  0  0  0  0  0  0  0
   12.3993    3.0927    0.0000 O   0  0  0  0  0  0  0  0  0  0  0  0
    5.1902    0.8954    0.0000 O   0  0  0  0  0  0  0  0  0  0  0  0
    3.8577    2.3868    0.0000 O   0  0  0  0  0  0  0  0  0  0  0  0
    5.1493    3.5408    0.0000 O   0  0  0  0  0  0  0  0  0  0  0  0
    4.5648   -1.0043    0.0000 O   0  0  0  0  0  0  0  0  0  0  0  0
    2.6069   -1.4126    0.0000 O   0  0  0  0  0  0  0  0  0  0  0  0
   10.1626   -0.2234    0.0000 C   0  0  0  0  0  0  0  0  0  0  0  0
    9.3536   -0.8112    0.0000 C   0  0  0  0  0  0  0  0  0  0  0  0
   10.9653   -0.8098    0.0000 C   0  0  0  0  0  0  0  0  0  0  0  0
    9.6632   -1.7558    0.0000 C   0  0  0  0  0  0  0  0  0  0  0  0
   10.6573   -1.7550    0.0000 C   0  0  0  0  0  0  0  0  0  0  0  0
    8.5445   -0.2234    0.0000 C   0  0  0  0  0  0  0  0  0  0  0  0
   10.7218    0.6056    0.0000 C   0  0  0  0  0  0  0  0  0  0  0  0
    8.8536    0.7276    0.0000 C   0  0  0  0  0  0  0  0  0  0  0  0
   11.9646   -0.8464    0.0000 C   0  0  0  0  0  0  0  0  0  0  0  0
   11.2451   -2.5640    0.0000 C   0  0  0  0  0  0  0  0  0  0  0  0
    7.5291   -0.4557    0.0000 C   0  0  0  0  0  0  0  0  0  0  0  0
   10.2834    1.5044    0.0000 C   0  0  0  0  0  0  0  0  0  0  0  0
   11.7193    0.5359    0.0000 C   0  0  0  0  0  0  0  0  0  0  0  0
    8.1686    1.5124    0.0000 C   0  0  0  0  0  0  0  0  0  0  0  0
   12.4960    0.0007    0.0000 C   0  0  0  0  0  0  0  0  0  0  0  0
   12.4325   -1.7302    0.0000 C   0  0  0  0  0  0  0  0  0  0  0  0
    6.8262    0.3130    0.0000 C   0  0  0  0  0  0  0  0  0  0  0  0
    7.1481    1.3037    0.0000 C   0  0  0  0  0  0  0  0  0  0  0  0
   10.8426    2.3334    0.0000 C   0  0  0  0  0  0  0  0  0  0  0  0
   12.2785    1.3649    0.0000 C   0  0  0  0  0  0  0  0  0  0  0  0
   13.4953   -0.0359    0.0000 C   0  0  0  0  0  0  0  0  0  0  0  0
   13.4319   -1.7668    0.0000 C   0  0  0  0  0  0  0  0  0  0  0  0
   11.8401    2.2637    0.0000 C   0  0  0  0  0  0  0  0  0  0  0  0
   13.9633   -0.9197    0.0000 C   0  0  0  0  0  0  0  0  0  0  0  0
   11.4261   -4.2865    0.0000 C   0  0  0  0  0  0  0  0  0  0  0  0
    6.2554   -1.6294    0.0000 C   0  0  0  0  0  0  0  0  0  0  0  0
    5.5029    1.8452    0.0000 C   0  0  0  0  0  0  0  0  0  0  0  0
    4.8366    2.5910    0.0000 C   0  0  0  0  0  0  0  0  0  0  0  0
    4.2112    0.6913    0.0000 C   0  0  0  0  0  0  0  0  0  0  0  0
   11.9610    3.9915    0.0000 C   0  0  0  0  0  0  0  0  0  0  0  0
    3.5450    1.4370    0.0000 C   0  0  0  0  0  0  0  0  0  0  0  0
    3.8986   -0.2586    0.0000 C   0  0  0  0  0  0  0  0  0  0  0  0
    2.9196   -0.4627    0.0000 C   0  0  0  0  0  0  0  0  0  0  0  0
    4.4830    4.2865    0.0000 C   0  0  0  0  0  0  0  0  0  0  0  0
  1 14  1  0
  1 21  1  0
 15  2  1  6
 17  3  1  1
  4 23  1  0
  4 38  1  0
  5 24  1  0
  5 39  1  0
  6 23  2  0
  7 31  1  0
 40  7  1  6
  8 36  1  0
  8 43  1  0
  9 40  1  0
  9 42  1  0
 10 41  1  0
 10 44  1  0
 41 11  1  1
 11 47  1  0
 45 12  1  6
 13 46  1  0
 14 15  1  0
 14 16  1  0
 14 20  1  6
 15 17  1  0
 15 19  1  0
 16 18  1  0
 16 22  1  6
 17 18  1  0
 18 23  1  1
 19 21  2  0
 19 24  1  0
 20 25  2  0
 20 26  1  0
 21 27  1  0
 22 28  2  0
 22 29  1  0
 24 30  2  0
 25 32  1  0
 26 33  2  0
 27 31  2  0
 28 34  1  0
 29 35  2  0
 30 31  1  0
 32 36  2  0
 33 36  1  0
 34 37  2  0
 35 37  1  0
 40 41  1  0
 42 44  1  1
 42 45  1  0
 45 46  1  0
M  END
>  <PUBCHEM_COMPOUND_CID>  (1) 
11787114

>  <PUBCHEM_COMPOUND_CANONICALIZED>  (1) 
1

>  <PUBCHEM_CACTVS_COMPLEXITY>  (1) 
1050

>  <PUBCHEM_CACTVS_HBOND_ACCEPTOR>  (1) 
13

>  <PUBCHEM_CACTVS_HBOND_DONOR>  (1) 
4

>  <PUBCHEM_CACTVS_ROTATABLE_BOND>  (1) 
11

>  <PUBCHEM_CACTVS_SUBSKEYS>  (1) 
AAADcfB8PAAAAAAAAAAAAAAAAAAAAaIAAAA0YMEAAAASAEgBUAAAGgAACAAADVSwmAMyDoAABgCIAiDSCAACCAAgIAAIiAEGCIgdNzaEMRqieCCl4BUPuAfK7PzOoAAACAAIAABAAAAQABAAAYQADCAAAA==

>  <PUBCHEM_IUPAC_OPENEYE_NAME>  (1) 
methyl (1R,2R,3S,3aR,8bS)-6-[[(2S,3R,6R)-6-[(1R)-1,2-dihydroxyethyl]-3-methoxy-1,4-dioxan-2-yl]oxy]-1,8b-dihydroxy-8-methoxy-3a-(4-methoxyphenyl)-3-phenyl-2,3-dihydro-1H-cyclopenta[b]benzofuran-2-carboxylate

>  <PUBCHEM_IUPAC_CAS_NAME>  (1) 
(1R,2R,3S,3aR,8bS)-6-[[(2S,3R,6R)-6-[(1R)-1,2-dihydroxyethyl]-3-methoxy-1,4-dioxan-2-yl]oxy]-1,8b-dihydroxy-8-methoxy-3a-(4-methoxyphenyl)-3-phenyl-2,3-dihydro-1H-cyclopenta[b]benzofuran-2-carboxylic acid methyl ester

>  <PUBCHEM_IUPAC_NAME_MARKUP>  (1) 
methyl (1<I>R</I>,2<I>R</I>,3<I>S</I>,3<I>a</I><I>R</I>,8<I>b</I><I>S</I>)-6-[[(2<I>S</I>,3<I>R</I>,6<I>R</I>)-6-[(1<I>R</I>)-1,2-dihydroxyethyl]-3-methoxy-1,4-dioxan-2-yl]oxy]-1,8<I>b</I>-dihydroxy-8-methoxy-3<I>a</I>-(4-methoxyphenyl)-3-phenyl-2,3-dihydro-1<I>H</I>-cyclopenta[b][1]benzofuran-2-carboxylate

>  <PUBCHEM_IUPAC_NAME>  (1) 
methyl (1R,2R,3S,3aR,8bS)-6-[[(2S,3R,6R)-6-[(1R)-1,2-dihydroxyethyl]-3-methoxy-1,4-dioxan-2-yl]oxy]-1,8b-dihydroxy-8-methoxy-3a-(4-methoxyphenyl)-3-phenyl-2,3-dihydro-1H-cyclopenta[b][1]benzofuran-2-carboxylate

>  <PUBCHEM_IUPAC_SYSTEMATIC_NAME>  (1) 
methyl (1R,2R,3S,3aR,8bS)-6-[[(2S,3R,6R)-6-[(1R)-1,2-bis(oxidanyl)ethyl]-3-methoxy-1,4-dioxan-2-yl]oxy]-8-methoxy-3a-(4-methoxyphenyl)-1,8b-bis(oxidanyl)-3-phenyl-2,3-dihydro-1H-cyclopenta[b][1]benzofuran-2-carboxylate

>  <PUBCHEM_IUPAC_TRADITIONAL_NAME>  (1) 
(1R,2R,3S,3aR,8bS)-6-[[(2S,3R,6R)-6-[(1R)-1,2-dihydroxyethyl]-3-methoxy-1,4-dioxan-2-yl]oxy]-1,8b-dihydroxy-8-methoxy-3a-(4-methoxyphenyl)-3-phenyl-2,3-dihydro-1H-cyclopenta[b]benzofuran-2-carboxylic acid methyl ester

>  <PUBCHEM_IUPAC_INCHI>  (1) 
InChI=1S/C34H38O13/c1-40-20-12-10-19(11-13-20)34-27(18-8-6-5-7-9-18)26(30(38)42-3)29(37)33(34,39)28-23(41-2)14-21(15-24(28)47-34)45-32-31(43-4)44-17-25(46-32)22(36)16-35/h5-15,22,25-27,29,31-32,35-37,39H,16-17H2,1-4H3/t22-,25-,26-,27-,29-,31-,32-,33+,34+/m1/s1

>  <PUBCHEM_IUPAC_INCHIKEY>  (1) 
GVKXFVCXBFGBCD-QKDMMWSPSA-N

>  <PUBCHEM_XLOGP3_AA>  (1) 
1.6

>  <PUBCHEM_EXACT_MASS>  (1) 
654.23124126

>  <PUBCHEM_MOLECULAR_FORMULA>  (1) 
C34H38O13

>  <PUBCHEM_MOLECULAR_WEIGHT>  (1) 
654.7

>  <PUBCHEM_OPENEYE_CAN_SMILES>  (1) 
COC1C(OC(CO1)C(CO)O)OC2=CC3=C(C(=C2)OC)C4(C(C(C(C4(O3)C5=CC=C(C=C5)OC)C6=CC=CC=C6)C(=O)OC)O)O

>  <PUBCHEM_OPENEYE_ISO_SMILES>  (1) 
CO[C@H]1[C@@H](O[C@H](CO1)[C@@H](CO)O)OC2=CC3=C(C(=C2)OC)[C@@]4([C@@H]([C@@H]([C@H]([C@@]4(O3)C5=CC=C(C=C5)OC)C6=CC=CC=C6)C(=O)OC)O)O

>  <PUBCHEM_CACTVS_TPSA>  (1) 
172

>  <PUBCHEM_MONOISOTOPIC_WEIGHT>  (1) 
654.23124126

>  <PUBCHEM_TOTAL_CHARGE>  (1) 
0

>  <PUBCHEM_HEAVY_ATOM_COUNT>  (1) 
47

>  <PUBCHEM_ATOM_DEF_STEREO_COUNT>  (1) 
9

>  <PUBCHEM_ATOM_UDEF_STEREO_COUNT>  (1) 
0

>  <PUBCHEM_BOND_DEF_STEREO_COUNT>  (1) 
0

>  <PUBCHEM_BOND_UDEF_STEREO_COUNT>  (1) 
0

>  <PUBCHEM_ISOTOPIC_ATOM_COUNT>  (1) 
0

>  <PUBCHEM_COMPONENT_COUNT>  (1) 
1

>  <PUBCHEM_CACTVS_TAUTO_COUNT>  (1) 
-1

>  <PUBCHEM_COORDINATE_TYPE>  (1) 
1
5
255

>  <PUBCHEM_BONDANNOTATIONS>  (1) 
41  11  5
45  12  6
14  20  6
16  22  6
18  23  5
19  21  8
19  24  8
15  2  6
20  25  8
20  26  8
21  27  8
22  28  8
22  29  8
24  30  8
25  32  8
26  33  8
27  31  8
28  34  8
29  35  8
17  3  5
30  31  8
32  36  8
33  36  8
34  37  8
35  37  8
42  72  6
40  7  6

$$$$
