54704283
     RDKit          2D

 32 35  0  0  1  0  0  0  0  0999 V2000
    5.1350   -2.9050    0.0000 O   0  0  0  0  0  0  0  0  0  0  0  0
    5.1350    0.0950    0.0000 O   0  0  0  0  0  0  0  0  0  0  0  0
    3.4030   -2.9050    0.0000 O   0  0  0  0  0  0  0  0  0  0  0  0
    3.4030    4.0950    0.0000 O   0  0  0  0  0  0  0  0  0  0  0  0
    2.5369   -1.4050    0.0000 N   0  0  0  0  0  0  0  0  0  0  0  0
    7.7331   -1.4050    0.0000 C   0  0  0  0  0  0  0  0  0  0  0  0
    7.7331   -0.4050    0.0000 C   0  0  0  0  0  0  0  0  0  0  0  0
    6.8671   -1.9050    0.0000 C   0  0  0  0  0  0  0  0  0  0  0  0
    8.6270   -1.9397    0.0000 C   0  0  0  0  0  0  0  0  0  0  0  0
    9.5331   -1.4258    0.0000 C   0  0  0  0  0  0  0  0  0  0  0  0
    8.6270    0.1297    0.0000 C   0  0  0  0  0  0  0  0  0  0  0  0
    9.5331   -0.3842    0.0000 C   0  0  0  0  0  0  0  0  0  0  0  0
    6.0010   -1.4050    0.0000 C   0  0  0  0  0  0  0  0  0  0  0  0
    6.8671    0.0950    0.0000 C   0  0  0  0  0  0  0  0  0  0  0  0
    6.0010   -0.4050    0.0000 C   0  0  0  0  0  0  0  0  0  0  0  0
   10.3972   -1.9292    0.0000 C   0  0  0  0  0  0  0  0  0  0  0  0
    6.8671   -2.9050    0.0000 C   0  0  0  0  0  0  0  0  0  0  0  0
    6.8671    1.0950    0.0000 C   0  0  0  0  0  0  0  0  0  0  0  0
    5.1350   -1.9050    0.0000 C   0  0  0  0  0  0  0  0  0  0  0  0
    7.7331   -3.4050    0.0000 C   0  0  0  0  0  0  0  0  0  0  0  0
    4.2690   -1.4050    0.0000 C   0  0  0  0  0  0  0  0  0  0  0  0
    7.7331   -4.4050    0.0000 C   0  0  0  0  0  0  0  0  0  0  0  0
    4.2690   -0.4050    0.0000 C   0  0  0  0  0  0  0  0  0  0  0  0
    3.4030   -1.9050    0.0000 C   0  0  0  0  0  0  0  0  0  0  0  0
    3.4030    0.0950    0.0000 C   0  0  0  0  0  0  0  0  0  0  0  0
    2.5369   -0.4050    0.0000 C   0  0  0  0  0  0  0  0  0  0  0  0
    3.4030    1.0950    0.0000 C   0  0  0  0  0  0  0  0  0  0  0  0
    2.5369    1.5950    0.0000 C   0  0  0  0  0  0  0  0  0  0  0  0
    4.2690    1.5950    0.0000 C   0  0  0  0  0  0  0  0  0  0  0  0
    2.5369    2.5950    0.0000 C   0  0  0  0  0  0  0  0  0  0  0  0
    4.2690    2.5950    0.0000 C   0  0  0  0  0  0  0  0  0  0  0  0
    3.4030    3.0950    0.0000 C   0  0  0  0  0  0  0  0  0  0  0  0
  1 19  2  0
  2 23  1  0
  3 24  2  0
  4 32  1  0
  5 24  1  0
  5 26  1  0
  6  7  1  0
  6  8  1  0
  6  9  1  6
  7 11  1  1
  7 14  1  0
  8 13  1  0
  8 17  1  1
  9 10  1  0
 10 12  1  0
 10 16  1  6
 11 12  1  0
 13 15  1  0
 13 19  1  6
 14 15  2  0
 14 18  1  0
 17 20  2  0
 19 21  1  0
 20 22  1  0
 21 23  2  0
 21 24  1  0
 23 25  1  0
 25 26  2  0
 25 27  1  0
 27 28  2  0
 27 29  1  0
 28 30  1  0
 29 31  2  0
 30 32  2  0
 31 32  1  0
M  END
>  <PUBCHEM_COMPOUND_CID>  (1) 
54704283

>  <PUBCHEM_COMPOUND_CANONICALIZED>  (1) 
1

>  <PUBCHEM_CACTVS_COMPLEXITY>  (1) 
887

>  <PUBCHEM_CACTVS_HBOND_ACCEPTOR>  (1) 
4

>  <PUBCHEM_CACTVS_HBOND_DONOR>  (1) 
3

>  <PUBCHEM_CACTVS_ROTATABLE_BOND>  (1) 
4

>  <PUBCHEM_CACTVS_SUBSKEYS>  (1) 
AAADceB6OAAAAAAAAAAAAAAAAAAAAAAAAAAwYIEAAAAAAACBAAAAHgAQCAAADQTBmAQyBoLAAgCIAqFWUACCAAAgIAAIiIEOCMgIJjqKkRKEcAAkwhEImQeYyOCOoAAAAAAAAADAAAQAACAAAAAAAAAAAA==

>  <PUBCHEM_IUPAC_OPENEYE_NAME>  (1) 
3-[(1R,2S,4aS,7S,8aR)-4,7-dimethyl-1-[(E)-prop-1-enyl]-1,2,4a,5,6,7,8,8a-octahydronaphthalene-2-carbonyl]-4-hydroxy-5-(4-hydroxyphenyl)-1H-pyridin-2-one

>  <PUBCHEM_IUPAC_CAS_NAME>  (1) 
3-[[(1R,2S,4aS,7S,8aR)-4,7-dimethyl-1-[(E)-prop-1-enyl]-1,2,4a,5,6,7,8,8a-octahydronaphthalen-2-yl]-oxomethyl]-4-hydroxy-5-(4-hydroxyphenyl)-1H-pyridin-2-one

>  <PUBCHEM_IUPAC_NAME_MARKUP>  (1) 
3-[(1<I>R</I>,2<I>S</I>,4<I>a</I><I>S</I>,7<I>S</I>,8<I>a</I><I>R</I>)-4,7-dimethyl-1-[(<I>E</I>)-prop-1-enyl]-1,2,4<I>a</I>,5,6,7,8,8<I>a</I>-octahydronaphthalene-2-carbonyl]-4-hydroxy-5-(4-hydroxyphenyl)-1<I>H</I>-pyridin-2-one

>  <PUBCHEM_IUPAC_NAME>  (1) 
3-[(1R,2S,4aS,7S,8aR)-4,7-dimethyl-1-[(E)-prop-1-enyl]-1,2,4a,5,6,7,8,8a-octahydronaphthalene-2-carbonyl]-4-hydroxy-5-(4-hydroxyphenyl)-1H-pyridin-2-one

>  <PUBCHEM_IUPAC_SYSTEMATIC_NAME>  (1) 
3-[[(1R,2S,4aS,7S,8aR)-4,7-dimethyl-1-[(E)-prop-1-enyl]-1,2,4a,5,6,7,8,8a-octahydronaphthalen-2-yl]carbonyl]-5-(4-hydroxyphenyl)-4-oxidanyl-1H-pyridin-2-one

>  <PUBCHEM_IUPAC_TRADITIONAL_NAME>  (1) 
3-[(1R,2S,4aS,7S,8aR)-4,7-dimethyl-1-[(E)-prop-1-enyl]-1,2,4a,5,6,7,8,8a-octahydronaphthalene-2-carbonyl]-4-hydroxy-5-(4-hydroxyphenyl)-2-pyridone

>  <PUBCHEM_IUPAC_INCHI>  (1) 
InChI=1S/C27H31NO4/c1-4-5-20-21-12-15(2)6-11-19(21)16(3)13-22(20)25(30)24-26(31)23(14-28-27(24)32)17-7-9-18(29)10-8-17/h4-5,7-10,13-15,19-22,29H,6,11-12H2,1-3H3,(H2,28,31,32)/b5-4+/t15-,19+,20+,21-,22+/m0/s1

>  <PUBCHEM_IUPAC_INCHIKEY>  (1) 
BYVVOONSAAQMKI-RFKCMYLBSA-N

>  <PUBCHEM_XLOGP3_AA>  (1) 
5

>  <PUBCHEM_EXACT_MASS>  (1) 
433.22530847

>  <PUBCHEM_MOLECULAR_FORMULA>  (1) 
C27H31NO4

>  <PUBCHEM_MOLECULAR_WEIGHT>  (1) 
433.5

>  <PUBCHEM_OPENEYE_CAN_SMILES>  (1) 
CC=CC1C2CC(CCC2C(=CC1C(=O)C3=C(C(=CNC3=O)C4=CC=C(C=C4)O)O)C)C

>  <PUBCHEM_OPENEYE_ISO_SMILES>  (1) 
C/C=C/[C@@H]1[C@H]2C[C@H](CC[C@@H]2C(=C[C@H]1C(=O)C3=C(C(=CNC3=O)C4=CC=C(C=C4)O)O)C)C

>  <PUBCHEM_CACTVS_TPSA>  (1) 
86.6

>  <PUBCHEM_MONOISOTOPIC_WEIGHT>  (1) 
433.22530847

>  <PUBCHEM_TOTAL_CHARGE>  (1) 
0

>  <PUBCHEM_HEAVY_ATOM_COUNT>  (1) 
32

>  <PUBCHEM_ATOM_DEF_STEREO_COUNT>  (1) 
5

>  <PUBCHEM_ATOM_UDEF_STEREO_COUNT>  (1) 
0

>  <PUBCHEM_BOND_DEF_STEREO_COUNT>  (1) 
1

>  <PUBCHEM_BOND_UDEF_STEREO_COUNT>  (1) 
0

>  <PUBCHEM_ISOTOPIC_ATOM_COUNT>  (1) 
0

>  <PUBCHEM_COMPONENT_COUNT>  (1) 
1

>  <PUBCHEM_CACTVS_TAUTO_COUNT>  (1) 
92

>  <PUBCHEM_COORDINATE_TYPE>  (1) 
1
5
255

>  <PUBCHEM_BONDANNOTATIONS>  (1) 
10  16  6
13  19  6
21  23  8
21  24  8
23  25  8
25  26  8
27  28  8
27  29  8
28  30  8
29  31  8
30  32  8
31  32  8
5  24  8
5  26  8
6  33  5
7  34  6
8  17  5

$$$$
