5281614
     RDKit          2D

 21 23  0  0  0  0  0  0  0  0999 V2000
    6.0682   -0.0950    0.0000 O   0  0  0  0  0  0  0  0  0  0  0  0
    7.8003    1.9050    0.0000 O   0  0  0  0  0  0  0  0  0  0  0  0
    6.0682    2.9050    0.0000 O   0  0  0  0  0  0  0  0  0  0  0  0
    2.5381   -0.1192    0.0000 O   0  0  0  0  0  0  0  0  0  0  0  0
    8.6663   -2.5950    0.0000 O   0  0  0  0  0  0  0  0  0  0  0  0
   10.3984   -1.5950    0.0000 O   0  0  0  0  0  0  0  0  0  0  0  0
    6.9343    0.4050    0.0000 C   0  0  0  0  0  0  0  0  0  0  0  0
    5.2022    1.4050    0.0000 C   0  0  0  0  0  0  0  0  0  0  0  0
    5.2022    0.4050    0.0000 C   0  0  0  0  0  0  0  0  0  0  0  0
    7.8003   -0.0950    0.0000 C   0  0  0  0  0  0  0  0  0  0  0  0
    6.9343    1.4050    0.0000 C   0  0  0  0  0  0  0  0  0  0  0  0
    6.0682    1.9050    0.0000 C   0  0  0  0  0  0  0  0  0  0  0  0
    4.3083    1.9397    0.0000 C   0  0  0  0  0  0  0  0  0  0  0  0
    4.3083   -0.1297    0.0000 C   0  0  0  0  0  0  0  0  0  0  0  0
    7.8003   -1.0950    0.0000 C   0  0  0  0  0  0  0  0  0  0  0  0
    8.6663    0.4050    0.0000 C   0  0  0  0  0  0  0  0  0  0  0  0
    3.4022    0.3842    0.0000 C   0  0  0  0  0  0  0  0  0  0  0  0
    3.4022    1.4258    0.0000 C   0  0  0  0  0  0  0  0  0  0  0  0
    8.6663   -1.5950    0.0000 C   0  0  0  0  0  0  0  0  0  0  0  0
    9.5323   -0.0950    0.0000 C   0  0  0  0  0  0  0  0  0  0  0  0
    9.5323   -1.0950    0.0000 C   0  0  0  0  0  0  0  0  0  0  0  0
  1  7  1  0
  1  9  1  0
  2 11  1  0
  3 12  2  0
  4 17  1  0
  5 19  1  0
  6 21  1  0
  7 10  1  0
  7 11  2  0
  8  9  2  0
  8 12  1  0
  8 13  1  0
  9 14  1  0
 10 15  2  0
 10 16  1  0
 11 12  1  0
 13 18  2  0
 14 17  2  0
 15 19  1  0
 16 20  2  0
 17 18  1  0
 19 21  2  0
 20 21  1  0
M  END
>  <PUBCHEM_COMPOUND_CID>  (1) 
5281614

>  <PUBCHEM_COMPOUND_CANONICALIZED>  (1) 
1

>  <PUBCHEM_CACTVS_COMPLEXITY>  (1) 
459

>  <PUBCHEM_CACTVS_HBOND_ACCEPTOR>  (1) 
6

>  <PUBCHEM_CACTVS_HBOND_DONOR>  (1) 
4

>  <PUBCHEM_CACTVS_ROTATABLE_BOND>  (1) 
1

>  <PUBCHEM_CACTVS_SUBSKEYS>  (1) 
AAADccBwOAAAAAAAAAAAAAAAAAAAAAAAAAAwYIAAAAAAAACBQAAAGgAACAAADASAmAAwBoAABgCIAqBSAAICCAAkIAAIiAFGiMgNJzaGNRqCeWGl4BUJuYfI7LzOIAABCAAIQABAAAIQABCAAAAAAAAAAA==

>  <PUBCHEM_IUPAC_OPENEYE_NAME>  (1) 
2-(3,4-dihydroxyphenyl)-3,7-dihydroxy-chromen-4-one

>  <PUBCHEM_IUPAC_CAS_NAME>  (1) 
2-(3,4-dihydroxyphenyl)-3,7-dihydroxy-1-benzopyran-4-one

>  <PUBCHEM_IUPAC_NAME_MARKUP>  (1) 
2-(3,4-dihydroxyphenyl)-3,7-dihydroxychromen-4-one

>  <PUBCHEM_IUPAC_NAME>  (1) 
2-(3,4-dihydroxyphenyl)-3,7-dihydroxychromen-4-one

>  <PUBCHEM_IUPAC_SYSTEMATIC_NAME>  (1) 
2-[3,4-bis(oxidanyl)phenyl]-3,7-bis(oxidanyl)chromen-4-one

>  <PUBCHEM_IUPAC_TRADITIONAL_NAME>  (1) 
2-(3,4-dihydroxyphenyl)-3,7-dihydroxy-chromone

>  <PUBCHEM_IUPAC_INCHI>  (1) 
InChI=1S/C15H10O6/c16-8-2-3-9-12(6-8)21-15(14(20)13(9)19)7-1-4-10(17)11(18)5-7/h1-6,16-18,20H

>  <PUBCHEM_IUPAC_INCHIKEY>  (1) 
XHEFDIBZLJXQHF-UHFFFAOYSA-N

>  <PUBCHEM_XLOGP3_AA>  (1) 
2

>  <PUBCHEM_EXACT_MASS>  (1) 
286.04773803

>  <PUBCHEM_MOLECULAR_FORMULA>  (1) 
C15H10O6

>  <PUBCHEM_MOLECULAR_WEIGHT>  (1) 
286.24

>  <PUBCHEM_OPENEYE_CAN_SMILES>  (1) 
C1=CC(=C(C=C1C2=C(C(=O)C3=C(O2)C=C(C=C3)O)O)O)O

>  <PUBCHEM_OPENEYE_ISO_SMILES>  (1) 
C1=CC(=C(C=C1C2=C(C(=O)C3=C(O2)C=C(C=C3)O)O)O)O

>  <PUBCHEM_CACTVS_TPSA>  (1) 
107

>  <PUBCHEM_MONOISOTOPIC_WEIGHT>  (1) 
286.04773803

>  <PUBCHEM_TOTAL_CHARGE>  (1) 
0

>  <PUBCHEM_HEAVY_ATOM_COUNT>  (1) 
21

>  <PUBCHEM_ATOM_DEF_STEREO_COUNT>  (1) 
0

>  <PUBCHEM_ATOM_UDEF_STEREO_COUNT>  (1) 
0

>  <PUBCHEM_BOND_DEF_STEREO_COUNT>  (1) 
0

>  <PUBCHEM_BOND_UDEF_STEREO_COUNT>  (1) 
0

>  <PUBCHEM_ISOTOPIC_ATOM_COUNT>  (1) 
0

>  <PUBCHEM_COMPONENT_COUNT>  (1) 
1

>  <PUBCHEM_CACTVS_TAUTO_COUNT>  (1) 
-1

>  <PUBCHEM_COORDINATE_TYPE>  (1) 
1
5
255

>  <PUBCHEM_BONDANNOTATIONS>  (1) 
1  7  8
1  9  8
10  15  8
10  16  8
11  12  8
13  18  8
14  17  8
15  19  8
16  20  8
17  18  8
19  21  8
20  21  8
7  11  8
8  12  8
8  13  8
8  9  8
9  14  8

$$$$
