167551
     RDKit          2D

 25 25  0  0  0  0  0  0  0  0999 V2000
   17.5885   -0.0600    0.0000 O   0  0  0  0  0  0  0  0  0  0  0  0
   16.7224    1.4400    0.0000 O   0  0  0  0  0  0  0  0  0  0  0  0
   14.9904    1.4400    0.0000 O   0  0  0  0  0  0  0  0  0  0  0  0
    8.9282   -0.0600    0.0000 C   0  0  0  0  0  0  0  0  0  0  0  0
    8.0622   -0.5600    0.0000 C   0  0  0  0  0  0  0  0  0  0  0  0
    9.7942   -0.5600    0.0000 C   0  0  0  0  0  0  0  0  0  0  0  0
    7.1962   -0.0600    0.0000 C   0  0  0  0  0  0  0  0  0  0  0  0
   10.6603   -0.0600    0.0000 C   0  0  0  0  0  0  0  0  0  0  0  0
    6.3301   -0.5600    0.0000 C   0  0  0  0  0  0  0  0  0  0  0  0
   11.5263   -0.5600    0.0000 C   0  0  0  0  0  0  0  0  0  0  0  0
    5.4641   -0.0600    0.0000 C   0  0  0  0  0  0  0  0  0  0  0  0
   12.3923   -0.0600    0.0000 C   0  0  0  0  0  0  0  0  0  0  0  0
    4.5981   -0.5600    0.0000 C   0  0  0  0  0  0  0  0  0  0  0  0
   13.2583   -0.5600    0.0000 C   0  0  0  0  0  0  0  0  0  0  0  0
    3.7320   -0.0600    0.0000 C   0  0  0  0  0  0  0  0  0  0  0  0
   14.1244   -0.0600    0.0000 C   0  0  0  0  0  0  0  0  0  0  0  0
    2.8660   -0.5600    0.0000 C   0  0  0  0  0  0  0  0  0  0  0  0
   14.9904   -0.5600    0.0000 C   0  0  0  0  0  0  0  0  0  0  0  0
    2.0000   -0.0600    0.0000 C   0  0  0  0  0  0  0  0  0  0  0  0
   15.8564   -0.0600    0.0000 C   0  0  0  0  0  0  0  0  0  0  0  0
   14.9904   -1.5600    0.0000 C   0  0  0  0  0  0  0  0  0  0  0  0
   16.7224   -0.5600    0.0000 C   0  0  0  0  0  0  0  0  0  0  0  0
   15.8564   -2.0600    0.0000 C   0  0  0  0  0  0  0  0  0  0  0  0
   16.7224   -1.5600    0.0000 C   0  0  0  0  0  0  0  0  0  0  0  0
   15.8564    0.9400    0.0000 C   0  0  0  0  0  0  0  0  0  0  0  0
  1 22  1  0
  2 25  1  0
  3 25  2  0
  4  5  1  0
  4  6  1  0
  5  7  1  0
  6  8  1  0
  7  9  1  0
  8 10  1  0
  9 11  1  0
 10 12  1  0
 11 13  1  0
 12 14  1  0
 13 15  1  0
 14 16  1  0
 15 17  1  0
 16 18  1  0
 17 19  1  0
 18 20  2  0
 18 21  1  0
 20 22  1  0
 20 25  1  0
 21 23  2  0
 22 24  2  0
 23 24  1  0
M  END
>  <PUBCHEM_COMPOUND_CID>  (1) 
167551

>  <PUBCHEM_COMPOUND_CANONICALIZED>  (1) 
1

>  <PUBCHEM_CACTVS_COMPLEXITY>  (1) 
329

>  <PUBCHEM_CACTVS_HBOND_ACCEPTOR>  (1) 
3

>  <PUBCHEM_CACTVS_HBOND_DONOR>  (1) 
2

>  <PUBCHEM_CACTVS_ROTATABLE_BOND>  (1) 
15

>  <PUBCHEM_CACTVS_SUBSKEYS>  (1) 
AAADcfB4MAAAAAAAAAAAAAAAAAAAAAAAAAAwAAAAAAAAAAABAAAAGgAACAAADASAmAAyDoAAAgCIAiDSCAACAAAkIAAIiAEGCMgIJzaCFRKAcUAl4BEImQeIyPCOgAABAAAYAAAAAAIAADAAAAAAAAAAAA==

>  <PUBCHEM_IUPAC_OPENEYE_NAME>  (1) 
2-hydroxy-6-pentadecyl-benzoic acid

>  <PUBCHEM_IUPAC_CAS_NAME>  (1) 
2-hydroxy-6-pentadecylbenzoic acid

>  <PUBCHEM_IUPAC_NAME_MARKUP>  (1) 
2-hydroxy-6-pentadecylbenzoic acid

>  <PUBCHEM_IUPAC_NAME>  (1) 
2-hydroxy-6-pentadecylbenzoic acid

>  <PUBCHEM_IUPAC_SYSTEMATIC_NAME>  (1) 
2-oxidanyl-6-pentadecyl-benzoic acid

>  <PUBCHEM_IUPAC_TRADITIONAL_NAME>  (1) 
2-hydroxy-6-pentadecyl-benzoic acid

>  <PUBCHEM_IUPAC_INCHI>  (1) 
InChI=1S/C22H36O3/c1-2-3-4-5-6-7-8-9-10-11-12-13-14-16-19-17-15-18-20(23)21(19)22(24)25/h15,17-18,23H,2-14,16H2,1H3,(H,24,25)

>  <PUBCHEM_IUPAC_INCHIKEY>  (1) 
ADFWQBGTDJIESE-UHFFFAOYSA-N

>  <PUBCHEM_XLOGP3_AA>  (1) 
9.5

>  <PUBCHEM_EXACT_MASS>  (1) 
348.26644501

>  <PUBCHEM_MOLECULAR_FORMULA>  (1) 
C22H36O3

>  <PUBCHEM_MOLECULAR_WEIGHT>  (1) 
348.5

>  <PUBCHEM_OPENEYE_CAN_SMILES>  (1) 
CCCCCCCCCCCCCCCC1=C(C(=CC=C1)O)C(=O)O

>  <PUBCHEM_OPENEYE_ISO_SMILES>  (1) 
CCCCCCCCCCCCCCCC1=C(C(=CC=C1)O)C(=O)O

>  <PUBCHEM_CACTVS_TPSA>  (1) 
57.5

>  <PUBCHEM_MONOISOTOPIC_WEIGHT>  (1) 
348.26644501

>  <PUBCHEM_TOTAL_CHARGE>  (1) 
0

>  <PUBCHEM_HEAVY_ATOM_COUNT>  (1) 
25

>  <PUBCHEM_ATOM_DEF_STEREO_COUNT>  (1) 
0

>  <PUBCHEM_ATOM_UDEF_STEREO_COUNT>  (1) 
0

>  <PUBCHEM_BOND_DEF_STEREO_COUNT>  (1) 
0

>  <PUBCHEM_BOND_UDEF_STEREO_COUNT>  (1) 
0

>  <PUBCHEM_ISOTOPIC_ATOM_COUNT>  (1) 
0

>  <PUBCHEM_COMPONENT_COUNT>  (1) 
1

>  <PUBCHEM_CACTVS_TAUTO_COUNT>  (1) 
-1

>  <PUBCHEM_COORDINATE_TYPE>  (1) 
1
5
255

>  <PUBCHEM_BONDANNOTATIONS>  (1) 
18  20  8
18  21  8
20  22  8
21  23  8
22  24  8
23  24  8

$$$$
