54697782
     RDKit          2D

 20 20  0  0  1  0  0  0  0  0999 V2000
    7.1962   -1.0000    0.0000 O   0  0  0  0  0  0  0  0  0  0  0  0
    2.8660   -0.5000    0.0000 O   0  0  0  0  0  0  0  0  0  0  0  0
    4.5981    0.5000    0.0000 O   0  0  0  0  0  0  0  0  0  0  0  0
    2.8660   -2.5000    0.0000 O   0  0  0  0  0  0  0  0  0  0  0  0
    6.3301   -2.5000    0.0000 O   0  0  0  0  0  0  0  0  0  0  0  0
    4.5981   -2.5000    0.0000 N   0  0  0  0  0  0  0  0  0  0  0  0
    6.3301    0.5000    0.0000 C   0  0  0  0  0  0  0  0  0  0  0  0
    7.1962    1.0000    0.0000 C   0  0  0  0  0  0  0  0  0  0  0  0
    6.3301   -0.5000    0.0000 C   0  0  0  0  0  0  0  0  0  0  0  0
    5.4641   -1.0000    0.0000 C   0  0  0  0  0  0  0  0  0  0  0  0
    5.4641    1.0000    0.0000 C   0  0  0  0  0  0  0  0  0  0  0  0
    4.5981   -0.5000    0.0000 C   0  0  0  0  0  0  0  0  0  0  0  0
    7.1962    2.0000    0.0000 C   0  0  0  0  0  0  0  0  0  0  0  0
    5.4641   -2.0000    0.0000 C   0  0  0  0  0  0  0  0  0  0  0  0
    3.7320   -1.0000    0.0000 C   0  0  0  0  0  0  0  0  0  0  0  0
    3.7320   -2.0000    0.0000 C   0  0  0  0  0  0  0  0  0  0  0  0
    8.0622    2.5000    0.0000 C   0  0  0  0  0  0  0  0  0  0  0  0
    8.0622    3.5000    0.0000 C   0  0  0  0  0  0  0  0  0  0  0  0
    2.0000   -1.0000    0.0000 C   0  0  0  0  0  0  0  0  0  0  0  0
    2.8660   -3.5000    0.0000 C   0  0  0  0  0  0  0  0  0  0  0  0
  1  9  2  0
  2 15  1  0
  2 19  1  0
  3 12  1  0
  4 16  1  0
  4 20  1  0
  5 14  2  0
  6 14  1  0
  6 16  1  0
  7  8  1  0
  7  9  1  0
  7 11  1  6
  8 13  1  0
  9 10  1  0
 10 12  2  0
 10 14  1  0
 12 15  1  0
 13 17  2  0
 15 16  2  0
 17 18  1  0
M  END
>  <PUBCHEM_COMPOUND_CID>  (1) 
54697782

>  <PUBCHEM_COMPOUND_CANONICALIZED>  (1) 
1

>  <PUBCHEM_CACTVS_COMPLEXITY>  (1) 
502

>  <PUBCHEM_CACTVS_HBOND_ACCEPTOR>  (1) 
5

>  <PUBCHEM_CACTVS_HBOND_DONOR>  (1) 
2

>  <PUBCHEM_CACTVS_ROTATABLE_BOND>  (1) 
6

>  <PUBCHEM_CACTVS_SUBSKEYS>  (1) 
AAADceByOAAAAAAAAAAAAAAAAAAAAAAAAAAgAAAAAAAAAAAAAAAAHgAQCAAADQSBgAICAALABgCIAqFSUACACAAgIAAICAEAAEkJBBoIoQAEEAAAgAALsQMYCAAOAAAAAAAAAAAAAAAAAAAAAAAAAAAAAA==

>  <PUBCHEM_IUPAC_OPENEYE_NAME>  (1) 
4-hydroxy-5,6-dimethoxy-3-[(E,2R)-2-methylhex-4-enoyl]-1H-pyridin-2-one

>  <PUBCHEM_IUPAC_CAS_NAME>  (1) 
4-hydroxy-5,6-dimethoxy-3-[(E,2R)-2-methyl-1-oxohex-4-enyl]-1H-pyridin-2-one

>  <PUBCHEM_IUPAC_NAME_MARKUP>  (1) 
4-hydroxy-5,6-dimethoxy-3-[(<I>E</I>,2<I>R</I>)-2-methylhex-4-enoyl]-1<I>H</I>-pyridin-2-one

>  <PUBCHEM_IUPAC_NAME>  (1) 
4-hydroxy-5,6-dimethoxy-3-[(E,2R)-2-methylhex-4-enoyl]-1H-pyridin-2-one

>  <PUBCHEM_IUPAC_SYSTEMATIC_NAME>  (1) 
5,6-dimethoxy-3-[(E,2R)-2-methylhex-4-enoyl]-4-oxidanyl-1H-pyridin-2-one

>  <PUBCHEM_IUPAC_TRADITIONAL_NAME>  (1) 
4-hydroxy-5,6-dimethoxy-3-[(E,2R)-2-methylhex-4-enoyl]-2-pyridone

>  <PUBCHEM_IUPAC_INCHI>  (1) 
InChI=1S/C14H19NO5/c1-5-6-7-8(2)10(16)9-11(17)12(19-3)14(20-4)15-13(9)18/h5-6,8H,7H2,1-4H3,(H2,15,17,18)/b6-5+/t8-/m1/s1

>  <PUBCHEM_IUPAC_INCHIKEY>  (1) 
FPYAYFJAGDIMEX-HQZHTGGTSA-N

>  <PUBCHEM_XLOGP3_AA>  (1) 
1.7

>  <PUBCHEM_EXACT_MASS>  (1) 
281.12632271

>  <PUBCHEM_MOLECULAR_FORMULA>  (1) 
C14H19NO5

>  <PUBCHEM_MOLECULAR_WEIGHT>  (1) 
281.30

>  <PUBCHEM_OPENEYE_CAN_SMILES>  (1) 
CC=CCC(C)C(=O)C1=C(C(=C(NC1=O)OC)OC)O

>  <PUBCHEM_OPENEYE_ISO_SMILES>  (1) 
C/C=C/C[C@@H](C)C(=O)C1=C(C(=C(NC1=O)OC)OC)O

>  <PUBCHEM_CACTVS_TPSA>  (1) 
84.9

>  <PUBCHEM_MONOISOTOPIC_WEIGHT>  (1) 
281.12632271

>  <PUBCHEM_TOTAL_CHARGE>  (1) 
0

>  <PUBCHEM_HEAVY_ATOM_COUNT>  (1) 
20

>  <PUBCHEM_ATOM_DEF_STEREO_COUNT>  (1) 
1

>  <PUBCHEM_ATOM_UDEF_STEREO_COUNT>  (1) 
0

>  <PUBCHEM_BOND_DEF_STEREO_COUNT>  (1) 
1

>  <PUBCHEM_BOND_UDEF_STEREO_COUNT>  (1) 
0

>  <PUBCHEM_ISOTOPIC_ATOM_COUNT>  (1) 
0

>  <PUBCHEM_COMPONENT_COUNT>  (1) 
1

>  <PUBCHEM_CACTVS_TAUTO_COUNT>  (1) 
-1

>  <PUBCHEM_COORDINATE_TYPE>  (1) 
1
5
255

>  <PUBCHEM_BONDANNOTATIONS>  (1) 
10  12  8
10  14  8
12  15  8
15  16  8
6  14  8
6  16  8
7  11  6

$$$$
