11289118
     RDKit          2D

 21 23  0  0  1  0  0  0  0  0999 V2000
    6.3981   -1.8193    0.0000 O   0  0  0  0  0  0  0  0  0  0  0  0
    3.8000   -1.3193    0.0000 C   0  0  0  0  0  0  0  0  0  0  0  0
    3.8000   -0.3193    0.0000 C   0  0  0  0  0  0  0  0  0  0  0  0
    2.9061   -1.8540    0.0000 C   0  0  0  0  0  0  0  0  0  0  0  0
    2.9061    0.2153    0.0000 C   0  0  0  0  0  0  0  0  0  0  0  0
    2.0000   -1.3402    0.0000 C   0  0  0  0  0  0  0  0  0  0  0  0
    2.0000   -0.2985    0.0000 C   0  0  0  0  0  0  0  0  0  0  0  0
    4.6660   -1.8193    0.0000 C   0  0  0  0  0  0  0  0  0  0  0  0
    4.6660    0.1807    0.0000 C   0  0  0  0  0  0  0  0  0  0  0  0
    3.8000    0.6807    0.0000 C   0  0  0  0  0  0  0  0  0  0  0  0
    2.4161   -2.7258    0.0000 C   0  0  0  0  0  0  0  0  0  0  0  0
    3.4160   -2.7142    0.0000 C   0  0  0  0  0  0  0  0  0  0  0  0
    5.5321   -0.3193    0.0000 C   0  0  0  0  0  0  0  0  0  0  0  0
    5.5321   -1.3193    0.0000 C   0  0  0  0  0  0  0  0  0  0  0  0
    4.6500    1.2222    0.0000 C   0  0  0  0  0  0  0  0  0  0  0  0
    6.4421    0.1875    0.0000 C   0  0  0  0  0  0  0  0  0  0  0  0
    6.4501    1.2291    0.0000 C   0  0  0  0  0  0  0  0  0  0  0  0
    5.5480    1.7499    0.0000 C   0  0  0  0  0  0  0  0  0  0  0  0
    7.3180    1.7258    0.0000 C   0  0  0  0  0  0  0  0  0  0  0  0
    7.3219    2.7258    0.0000 C   0  0  0  0  0  0  0  0  0  0  0  0
    8.1821    1.2224    0.0000 C   0  0  0  0  0  0  0  0  0  0  0  0
  1 14  2  0
  2  3  1  0
  2  4  1  0
  2  8  1  1
  3  5  1  0
  3  9  1  0
  3 10  1  1
  4  6  1  0
  4 11  1  0
  4 12  1  0
  5  7  1  0
  6  7  1  0
  8 14  1  0
  9 13  2  0
  9 15  1  0
 13 14  1  0
 13 16  1  0
 15 18  2  0
 16 17  2  0
 17 18  1  0
 17 19  1  0
 19 20  1  0
 19 21  1  0
M  END
>  <PUBCHEM_COMPOUND_CID>  (1) 
11289118

>  <PUBCHEM_COMPOUND_CANONICALIZED>  (1) 
1

>  <PUBCHEM_CACTVS_COMPLEXITY>  (1) 
422

>  <PUBCHEM_CACTVS_HBOND_ACCEPTOR>  (1) 
1

>  <PUBCHEM_CACTVS_HBOND_DONOR>  (1) 
0

>  <PUBCHEM_CACTVS_ROTATABLE_BOND>  (1) 
1

>  <PUBCHEM_CACTVS_SUBSKEYS>  (1) 
AAADceB4IAAAAAAAAAAAAAAAAAAAAAAAAAAwYMAAAAAAAADBAAAAGgAAAAAADwSAmAAyAIAAAACIAqBSAAACAAAkAAAIiAEAAMgIIDKAFRCAIQAggAAIiYcIiMCPwAACAAAQAACAAAQAACAAAAAAAAAAAA==

>  <PUBCHEM_IUPAC_OPENEYE_NAME>  (1) 
(4aS,10aS)-7-isopropyl-1,1,4a-trimethyl-3,4,10,10a-tetrahydro-2H-phenanthren-9-one

>  <PUBCHEM_IUPAC_CAS_NAME>  (1) 
(4aS,10aS)-1,1,4a-trimethyl-7-propan-2-yl-3,4,10,10a-tetrahydro-2H-phenanthren-9-one

>  <PUBCHEM_IUPAC_NAME_MARKUP>  (1) 
(4<I>a</I><I>S</I>,10<I>a</I><I>S</I>)-1,1,4<I>a</I>-trimethyl-7-propan-2-yl-3,4,10,10<I>a</I>-tetrahydro-2<I>H</I>-phenanthren-9-one

>  <PUBCHEM_IUPAC_NAME>  (1) 
(4aS,10aS)-1,1,4a-trimethyl-7-propan-2-yl-3,4,10,10a-tetrahydro-2H-phenanthren-9-one

>  <PUBCHEM_IUPAC_SYSTEMATIC_NAME>  (1) 
(4aS,10aS)-1,1,4a-trimethyl-7-propan-2-yl-3,4,10,10a-tetrahydro-2H-phenanthren-9-one

>  <PUBCHEM_IUPAC_TRADITIONAL_NAME>  (1) 
(4aS,10aS)-7-isopropyl-1,1,4a-trimethyl-3,4,10,10a-tetrahydro-2H-phenanthren-9-one

>  <PUBCHEM_IUPAC_INCHI>  (1) 
InChI=1S/C20H28O/c1-13(2)14-7-8-16-15(11-14)17(21)12-18-19(3,4)9-6-10-20(16,18)5/h7-8,11,13,18H,6,9-10,12H2,1-5H3/t18-,20+/m0/s1

>  <PUBCHEM_IUPAC_INCHIKEY>  (1) 
ISHVJVXYPLFKAL-AZUAARDMSA-N

>  <PUBCHEM_XLOGP3_AA>  (1) 
6

>  <PUBCHEM_EXACT_MASS>  (1) 
284.214015512

>  <PUBCHEM_MOLECULAR_FORMULA>  (1) 
C20H28O

>  <PUBCHEM_MOLECULAR_WEIGHT>  (1) 
284.4

>  <PUBCHEM_OPENEYE_CAN_SMILES>  (1) 
CC(C)C1=CC2=C(C=C1)C3(CCCC(C3CC2=O)(C)C)C

>  <PUBCHEM_OPENEYE_ISO_SMILES>  (1) 
CC(C)C1=CC2=C(C=C1)[C@]3(CCCC([C@@H]3CC2=O)(C)C)C

>  <PUBCHEM_CACTVS_TPSA>  (1) 
17.1

>  <PUBCHEM_MONOISOTOPIC_WEIGHT>  (1) 
284.214015512

>  <PUBCHEM_TOTAL_CHARGE>  (1) 
0

>  <PUBCHEM_HEAVY_ATOM_COUNT>  (1) 
21

>  <PUBCHEM_ATOM_DEF_STEREO_COUNT>  (1) 
2

>  <PUBCHEM_ATOM_UDEF_STEREO_COUNT>  (1) 
0

>  <PUBCHEM_BOND_DEF_STEREO_COUNT>  (1) 
0

>  <PUBCHEM_BOND_UDEF_STEREO_COUNT>  (1) 
0

>  <PUBCHEM_ISOTOPIC_ATOM_COUNT>  (1) 
0

>  <PUBCHEM_COMPONENT_COUNT>  (1) 
1

>  <PUBCHEM_CACTVS_TAUTO_COUNT>  (1) 
-1

>  <PUBCHEM_COORDINATE_TYPE>  (1) 
1
5
255

>  <PUBCHEM_BONDANNOTATIONS>  (1) 
13  16  8
15  18  8
16  17  8
17  18  8
2  22  6
3  10  5
9  13  8
9  15  8

$$$$
