MCSJ51_0005
  -OEChem-04162408212D

 58 59  0     1  0  0  0  0  0999 V2000
    8.9282    4.9050    0.0000 O   0  0  0  0  0  0  0  0  0  0  0  0
    3.7320    0.9050    0.0000 O   0  0  0  0  0  0  0  0  0  0  0  0
    7.1962    0.9050    0.0000 O   0  0  0  0  0  0  0  0  0  0  0  0
    2.8660   -0.5950    0.0000 O   0  0  0  0  0  0  0  0  0  0  0  0
    2.8660   -6.5950    0.0000 O   0  0  0  0  0  0  0  0  0  0  0  0
    7.1962    4.9050    0.0000 C   0  0  0  0  0  0  0  0  0  0  0  0
    7.1962    3.9050    0.0000 C   0  0  0  0  0  0  0  0  0  0  0  0
    8.0622    5.4050    0.0000 C   0  0  3  0  0  0  0  0  0  0  0  0
    6.3301    3.4050    0.0000 C   0  0  0  0  0  0  0  0  0  0  0  0
    5.4641    1.9050    0.0000 C   0  0  0  0  0  0  0  0  0  0  0  0
    6.3301    2.4050    0.0000 C   0  0  0  0  0  0  0  0  0  0  0  0
    5.4641    0.9050    0.0000 C   0  0  0  0  0  0  0  0  0  0  0  0
    8.0622    6.4050    0.0000 C   0  0  0  0  0  0  0  0  0  0  0  0
    5.4641    3.9050    0.0000 C   0  0  0  0  0  0  0  0  0  0  0  0
    4.5981    0.4050    0.0000 C   0  0  0  0  0  0  0  0  0  0  0  0
    6.3301    0.4050    0.0000 C   0  0  0  0  0  0  0  0  0  0  0  0
    4.5981   -0.5950    0.0000 C   0  0  0  0  0  0  0  0  0  0  0  0
    8.9282    6.9050    0.0000 C   0  0  0  0  0  0  0  0  0  0  0  0
    6.3301   -0.5950    0.0000 C   0  0  0  0  0  0  0  0  0  0  0  0
    5.4641   -1.0950    0.0000 C   0  0  0  0  0  0  0  0  0  0  0  0
    7.1962    6.9050    0.0000 C   0  0  0  0  0  0  0  0  0  0  0  0
    3.7320   -1.0950    0.0000 C   0  0  0  0  0  0  0  0  0  0  0  0
    3.7320   -2.0950    0.0000 C   0  0  0  0  0  0  0  0  0  0  0  0
    2.8660   -2.5950    0.0000 C   0  0  0  0  0  0  0  0  0  0  0  0
    2.8660   -3.5950    0.0000 C   0  0  0  0  0  0  0  0  0  0  0  0
    2.0000   -4.0950    0.0000 C   0  0  0  0  0  0  0  0  0  0  0  0
    3.7320   -4.0950    0.0000 C   0  0  0  0  0  0  0  0  0  0  0  0
    2.0000   -5.0950    0.0000 C   0  0  0  0  0  0  0  0  0  0  0  0
    3.7320   -5.0950    0.0000 C   0  0  0  0  0  0  0  0  0  0  0  0
    2.8660   -5.5950    0.0000 C   0  0  0  0  0  0  0  0  0  0  0  0
    6.9841    5.4876    0.0000 H   0  0  0  0  0  0  0  0  0  0  0  0
    6.5856    4.7973    0.0000 H   0  0  0  0  0  0  0  0  0  0  0  0
    7.4082    3.3224    0.0000 H   0  0  0  0  0  0  0  0  0  0  0  0
    7.8067    4.0127    0.0000 H   0  0  0  0  0  0  0  0  0  0  0  0
    8.0622    4.7850    0.0000 H   0  0  0  0  0  0  0  0  0  0  0  0
    5.2520    2.4876    0.0000 H   0  0  0  0  0  0  0  0  0  0  0  0
    4.8535    1.7973    0.0000 H   0  0  0  0  0  0  0  0  0  0  0  0
    6.8671    2.0950    0.0000 H   0  0  0  0  0  0  0  0  0  0  0  0
    5.7741    4.4419    0.0000 H   0  0  0  0  0  0  0  0  0  0  0  0
    4.9272    4.2150    0.0000 H   0  0  0  0  0  0  0  0  0  0  0  0
    5.1541    3.3681    0.0000 H   0  0  0  0  0  0  0  0  0  0  0  0
    9.2382    6.3681    0.0000 H   0  0  0  0  0  0  0  0  0  0  0  0
    9.4651    7.2150    0.0000 H   0  0  0  0  0  0  0  0  0  0  0  0
    8.6182    7.4419    0.0000 H   0  0  0  0  0  0  0  0  0  0  0  0
    9.4651    5.2150    0.0000 H   0  0  0  0  0  0  0  0  0  0  0  0
    6.8671   -0.9050    0.0000 H   0  0  0  0  0  0  0  0  0  0  0  0
    5.4641   -1.7150    0.0000 H   0  0  0  0  0  0  0  0  0  0  0  0
    7.1962    7.5250    0.0000 H   0  0  0  0  0  0  0  0  0  0  0  0
    6.6592    6.5950    0.0000 H   0  0  0  0  0  0  0  0  0  0  0  0
    3.7320    1.5250    0.0000 H   0  0  0  0  0  0  0  0  0  0  0  0
    7.7331    0.5950    0.0000 H   0  0  0  0  0  0  0  0  0  0  0  0
    4.2690   -2.4050    0.0000 H   0  0  0  0  0  0  0  0  0  0  0  0
    2.3291   -2.2850    0.0000 H   0  0  0  0  0  0  0  0  0  0  0  0
    1.4631   -3.7850    0.0000 H   0  0  0  0  0  0  0  0  0  0  0  0
    4.2690   -3.7850    0.0000 H   0  0  0  0  0  0  0  0  0  0  0  0
    1.4631   -5.4050    0.0000 H   0  0  0  0  0  0  0  0  0  0  0  0
    4.2690   -5.4050    0.0000 H   0  0  0  0  0  0  0  0  0  0  0  0
    2.3291   -6.9050    0.0000 H   0  0  0  0  0  0  0  0  0  0  0  0
  1  8  1  0  0  0  0
  1 45  1  0  0  0  0
  2 15  1  0  0  0  0
  2 50  1  0  0  0  0
  3 16  1  0  0  0  0
  3 51  1  0  0  0  0
  4 22  2  0  0  0  0
  5 30  1  0  0  0  0
  5 58  1  0  0  0  0
  6  7  1  0  0  0  0
  6  8  1  0  0  0  0
  6 31  1  0  0  0  0
  6 32  1  0  0  0  0
  7  9  1  0  0  0  0
  7 33  1  0  0  0  0
  7 34  1  0  0  0  0
  8 13  1  0  0  0  0
  8 35  1  0  0  0  0
  9 11  2  0  0  0  0
  9 14  1  0  0  0  0
 10 11  1  0  0  0  0
 10 12  1  0  0  0  0
 10 36  1  0  0  0  0
 10 37  1  0  0  0  0
 11 38  1  0  0  0  0
 12 15  1  0  0  0  0
 12 16  2  0  0  0  0
 13 18  1  0  0  0  0
 13 21  2  0  0  0  0
 14 39  1  0  0  0  0
 14 40  1  0  0  0  0
 14 41  1  0  0  0  0
 15 17  2  0  0  0  0
 16 19  1  0  0  0  0
 17 20  1  0  0  0  0
 17 22  1  0  0  0  0
 18 42  1  0  0  0  0
 18 43  1  0  0  0  0
 18 44  1  0  0  0  0
 19 20  2  0  0  0  0
 19 46  1  0  0  0  0
 20 47  1  0  0  0  0
 21 48  1  0  0  0  0
 21 49  1  0  0  0  0
 22 23  1  0  0  0  0
 23 24  2  0  0  0  0
 23 52  1  0  0  0  0
 24 25  1  0  0  0  0
 24 53  1  0  0  0  0
 25 26  2  0  0  0  0
 25 27  1  0  0  0  0
 26 28  1  0  0  0  0
 26 54  1  0  0  0  0
 27 29  2  0  0  0  0
 27 55  1  0  0  0  0
 28 30  2  0  0  0  0
 28 56  1  0  0  0  0
 29 30  1  0  0  0  0
 29 57  1  0  0  0  0
M  END
> <PUBCHEM_COMPOUND_CID>
10409180

> <PUBCHEM_COMPOUND_CANONICALIZED>
1

> <PUBCHEM_CACTVS_COMPLEXITY>
630

> <PUBCHEM_CACTVS_HBOND_ACCEPTOR>
5

> <PUBCHEM_CACTVS_HBOND_DONOR>
4

> <PUBCHEM_CACTVS_ROTATABLE_BOND>
9

> <PUBCHEM_CACTVS_SUBSKEYS>
AAADceB4OAAAAAAAAAAAAAAAAAAAAAAAAAAwYAAAAAAAAAABQAAAGgAACAAADBSgmAIyBoAAAgCIAqBSAAACAAAkIAAIiAEGCMgINzaCFRKAcUAl4BUImYeI7OTOIAACCAAIAABAAAQQABAAAAAAAAAAAA==

> <PUBCHEM_IUPAC_OPENEYE_NAME>
(E)-1-[2,4-dihydroxy-3-[(2E)-6-hydroxy-3,7-dimethyl-octa-2,7-dienyl]phenyl]-3-(4-hydroxyphenyl)prop-2-en-1-one

> <PUBCHEM_IUPAC_CAS_NAME>
(E)-1-[2,4-dihydroxy-3-[(2E)-6-hydroxy-3,7-dimethylocta-2,7-dienyl]phenyl]-3-(4-hydroxyphenyl)-2-propen-1-one

> <PUBCHEM_IUPAC_NAME_MARKUP>
(<I>E</I>)-1-[2,4-dihydroxy-3-[(2<I>E</I>)-6-hydroxy-3,7-dimethylocta-2,7-dienyl]phenyl]-3-(4-hydroxyphenyl)prop-2-en-1-one

> <PUBCHEM_IUPAC_NAME>
(E)-1-[2,4-dihydroxy-3-[(2E)-6-hydroxy-3,7-dimethylocta-2,7-dienyl]phenyl]-3-(4-hydroxyphenyl)prop-2-en-1-one

> <PUBCHEM_IUPAC_SYSTEMATIC_NAME>
(E)-1-[3-[(2E)-3,7-dimethyl-6-oxidanyl-octa-2,7-dienyl]-2,4-bis(oxidanyl)phenyl]-3-(4-hydroxyphenyl)prop-2-en-1-one

> <PUBCHEM_IUPAC_TRADITIONAL_NAME>
(E)-1-[2,4-dihydroxy-3-[(2E)-6-hydroxy-3,7-dimethyl-octa-2,7-dienyl]phenyl]-3-(4-hydroxyphenyl)prop-2-en-1-one

> <PUBCHEM_IUPAC_INCHI>
InChI=1S/C25H28O5/c1-16(2)22(27)13-5-17(3)4-11-20-24(29)15-12-21(25(20)30)23(28)14-8-18-6-9-19(26)10-7-18/h4,6-10,12,14-15,22,26-27,29-30H,1,5,11,13H2,2-3H3/b14-8+,17-4+

> <PUBCHEM_IUPAC_INCHIKEY>
NCHZAFAGBAEJJJ-BAYITLGHSA-N

> <PUBCHEM_XLOGP3_AA>
6

> <PUBCHEM_EXACT_MASS>
408.19367399

> <PUBCHEM_MOLECULAR_FORMULA>
C25H28O5

> <PUBCHEM_MOLECULAR_WEIGHT>
408.5

> <PUBCHEM_REFERENCE_STANDARDIZATION>
Bypass - this structure was created from CID 10409180

> <PUBCHEM_OPENEYE_CAN_SMILES>
CC(=C)C(CCC(=CCC1=C(C=CC(=C1O)C(=O)C=CC2=CC=C(C=C2)O)O)C)O

> <PUBCHEM_OPENEYE_ISO_SMILES>
CC(=C)C(CC/C(=C/CC1=C(C=CC(=C1O)C(=O)/C=C/C2=CC=C(C=C2)O)O)/C)O

> <PUBCHEM_CACTVS_TPSA>
98

> <PUBCHEM_MONOISOTOPIC_WEIGHT>
408.19367399

> <PUBCHEM_TOTAL_CHARGE>
0

> <PUBCHEM_HEAVY_ATOM_COUNT>
30

> <PUBCHEM_ATOM_DEF_STEREO_COUNT>
0

> <PUBCHEM_ATOM_UDEF_STEREO_COUNT>
1

> <PUBCHEM_BOND_DEF_STEREO_COUNT>
2

> <PUBCHEM_BOND_UDEF_STEREO_COUNT>
0

> <PUBCHEM_ISOTOPIC_ATOM_COUNT>
0

> <PUBCHEM_COMPONENT_COUNT>
1

> <PUBCHEM_CACTVS_TAUTO_COUNT>
-1

> <PUBCHEM_COORDINATE_TYPE>
1
5
255

> <PUBCHEM_BONDANNOTATIONS>
8  1  3
12  15  8
12  16  8
15  17  8
16  19  8
17  20  8
19  20  8
25  26  8
25  27  8
26  28  8
27  29  8
28  30  8
29  30  8

$$$$
