2724385
     RDKit          2D

 55 62  0  0  1  0  0  0  0  0999 V2000
   18.3182   -1.3888    0.0000 O   0  0  0  0  0  0  0  0  0  0  0  0
   17.4387    2.1079    0.0000 O   0  0  0  0  0  0  0  0  0  0  0  0
   12.9292   -2.4619    0.0000 O   0  0  0  0  0  0  0  0  0  0  0  0
   19.5591    3.4894    0.0000 O   0  0  0  0  0  0  0  0  0  0  0  0
   12.0632   -0.9619    0.0000 O   0  0  0  0  0  0  0  0  0  0  0  0
   21.3186    3.7719    0.0000 O   0  0  0  0  0  0  0  0  0  0  0  0
    9.4651   -2.4619    0.0000 O   0  0  0  0  0  0  0  0  0  0  0  0
    9.4651   -0.4619    0.0000 O   0  0  0  0  0  0  0  0  0  0  0  0
    7.7331   -0.4619    0.0000 O   0  0  0  0  0  0  0  0  0  0  0  0
    6.0010   -2.4619    0.0000 O   0  0  0  0  0  0  0  0  0  0  0  0
    7.7331   -3.4619    0.0000 O   0  0  0  0  0  0  0  0  0  0  0  0
    4.2690   -2.4619    0.0000 O   0  0  0  0  0  0  0  0  0  0  0  0
    4.2690    0.5381    0.0000 O   0  0  0  0  0  0  0  0  0  0  0  0
    2.5369   -0.4619    0.0000 O   0  0  0  0  0  0  0  0  0  0  0  0
   18.3144   -0.3888    0.0000 C   0  0  0  0  0  0  0  0  0  0  0  0
   17.4503   -0.8921    0.0000 C   0  0  0  0  0  0  0  0  0  0  0  0
   16.5823   -0.3954    0.0000 C   0  0  0  0  0  0  0  0  0  0  0  0
   18.3105    0.6112    0.0000 C   0  0  0  0  0  0  0  0  0  0  0  0
   15.6743   -0.9058    0.0000 C   0  0  0  0  0  0  0  0  0  0  0  0
   15.6703   -1.9474    0.0000 C   0  0  0  0  0  0  0  0  0  0  0  0
   17.4426    1.1079    0.0000 C   0  0  0  0  0  0  0  0  0  0  0  0
   16.5785    0.6046    0.0000 C   0  0  0  0  0  0  0  0  0  0  0  0
   19.2556    0.9196    0.0000 C   0  0  0  0  0  0  0  0  0  0  0  0
   19.2618   -0.6898    0.0000 C   0  0  0  0  0  0  0  0  0  0  0  0
   17.4704   -1.9335    0.0000 C   0  0  0  0  0  0  0  0  0  0  0  0
   16.5744   -2.4647    0.0000 C   0  0  0  0  0  0  0  0  0  0  0  0
   19.8423    0.1171    0.0000 C   0  0  0  0  0  0  0  0  0  0  0  0
   14.7453   -0.3453    0.0000 C   0  0  0  0  0  0  0  0  0  0  0  0
   18.3067    1.6112    0.0000 C   0  0  0  0  0  0  0  0  0  0  0  0
   14.7370   -2.5007    0.0000 C   0  0  0  0  0  0  0  0  0  0  0  0
   15.6782    0.0942    0.0000 C   0  0  0  0  0  0  0  0  0  0  0  0
   13.7994   -0.8769    0.0000 C   0  0  0  0  0  0  0  0  0  0  0  0
   13.7953   -1.9619    0.0000 C   0  0  0  0  0  0  0  0  0  0  0  0
   19.5626    1.8713    0.0000 C   0  0  0  0  0  0  0  0  0  0  0  0
   18.9731    2.6791    0.0000 C   0  0  0  0  0  0  0  0  0  0  0  0
   20.5130    2.1824    0.0000 C   0  0  0  0  0  0  0  0  0  0  0  0
   20.5108    3.1824    0.0000 C   0  0  0  0  0  0  0  0  0  0  0  0
   12.0632   -1.9619    0.0000 C   0  0  0  0  0  0  0  0  0  0  0  0
   11.1972   -2.4619    0.0000 C   0  0  0  0  0  0  0  0  0  0  0  0
   10.3312   -1.9619    0.0000 C   0  0  0  0  0  0  0  0  0  0  0  0
   11.1972   -0.4619    0.0000 C   0  0  0  0  0  0  0  0  0  0  0  0
   10.3312   -0.9619    0.0000 C   0  0  0  0  0  0  0  0  0  0  0  0
   11.1972    0.5381    0.0000 C   0  0  0  0  0  0  0  0  0  0  0  0
    8.5991   -0.9619    0.0000 C   0  0  0  0  0  0  0  0  0  0  0  0
    8.5991   -1.9619    0.0000 C   0  0  0  0  0  0  0  0  0  0  0  0
    7.7331   -2.4619    0.0000 C   0  0  0  0  0  0  0  0  0  0  0  0
    6.8671   -0.9619    0.0000 C   0  0  0  0  0  0  0  0  0  0  0  0
    6.8671   -1.9619    0.0000 C   0  0  0  0  0  0  0  0  0  0  0  0
    6.0010   -0.4619    0.0000 C   0  0  0  0  0  0  0  0  0  0  0  0
    5.1350   -1.9619    0.0000 C   0  0  0  0  0  0  0  0  0  0  0  0
    5.1350   -0.9619    0.0000 C   0  0  0  0  0  0  0  0  0  0  0  0
    4.2690   -0.4619    0.0000 C   0  0  0  0  0  0  0  0  0  0  0  0
    3.4030   -1.9619    0.0000 C   0  0  0  0  0  0  0  0  0  0  0  0
    3.4030   -0.9619    0.0000 C   0  0  0  0  0  0  0  0  0  0  0  0
    2.5369   -2.4619    0.0000 C   0  0  0  0  0  0  0  0  0  0  0  0
 15  1  1  1
 21  2  1  1
 33  3  1  1
 38  3  1  1
  4 35  1  0
  4 37  1  0
  5 38  1  0
  5 41  1  0
  6 37  2  0
 40  7  1  6
 42  8  1  6
 44  8  1  1
  9 44  1  0
  9 47  1  0
 48 10  1  6
 50 10  1  6
 46 11  1  6
 12 50  1  0
 12 53  1  0
 52 13  1  1
 54 14  1  1
 15 16  1  0
 15 18  1  0
 15 24  1  0
 16 17  1  0
 16 25  1  6
 17 19  1  0
 17 22  1  1
 18 21  1  0
 18 23  1  0
 18 29  1  1
 19 20  1  0
 19 28  1  0
 19 31  1  1
 20 26  1  6
 20 30  1  0
 21 22  1  0
 23 27  1  0
 23 34  1  1
 24 27  1  0
 25 26  1  0
 28 32  1  0
 30 33  1  0
 32 33  1  0
 34 35  1  0
 34 36  2  0
 36 37  1  0
 38 39  1  0
 39 40  1  0
 40 42  1  0
 41 42  1  0
 41 43  1  1
 44 45  1  0
 45 46  1  0
 46 48  1  0
 47 48  1  0
 47 49  1  1
 50 51  1  0
 51 52  1  0
 52 54  1  0
 53 54  1  0
 53 55  1  6
M  END
>  <PUBCHEM_COMPOUND_CID>  (1) 
2724385

>  <PUBCHEM_COMPOUND_CANONICALIZED>  (1) 
1

>  <PUBCHEM_CACTVS_COMPLEXITY>  (1) 
1450

>  <PUBCHEM_CACTVS_HBOND_ACCEPTOR>  (1) 
14

>  <PUBCHEM_CACTVS_HBOND_DONOR>  (1) 
6

>  <PUBCHEM_CACTVS_ROTATABLE_BOND>  (1) 
7

>  <PUBCHEM_CACTVS_SUBSKEYS>  (1) 
AAADcfB8PAAAAAAAAAAAAAAAAAAAAYIAAAA0aNECAAAAAGDAAAAAGgAACAAAD1SwgAMCCAAABgCIAiDSCAAAAAAgAAAACAAAAEgRFAIAIQAiUAAFgAAPIQPA4PwPgAAAAAAAAADAAAYQADAAAYAADAAAAA==

>  <PUBCHEM_IUPAC_OPENEYE_NAME>  (1) 
3-[(3S,5R,8R,9S,10S,12R,13S,14S,17R)-3-[(2R,4S,5S,6R)-5-[(2S,4S,5S,6R)-5-[(2S,4S,5S,6R)-4,5-dihydroxy-6-methyl-tetrahydropyran-2-yl]oxy-4-hydroxy-6-methyl-tetrahydropyran-2-yl]oxy-4-hydroxy-6-methyl-tetrahydropyran-2-yl]oxy-12,14-dihydroxy-10,13-dimethyl-1,2,3,4,5,6,7,8,9,11,12,15,16,17-tetradecahydrocyclopenta[a]phenanthren-17-yl]-2H-furan-5-one

>  <PUBCHEM_IUPAC_CAS_NAME>  (1) 
3-[(3S,5R,8R,9S,10S,12R,13S,14S,17R)-3-[[(2R,4S,5S,6R)-5-[[(2S,4S,5S,6R)-5-[[(2S,4S,5S,6R)-4,5-dihydroxy-6-methyl-2-oxanyl]oxy]-4-hydroxy-6-methyl-2-oxanyl]oxy]-4-hydroxy-6-methyl-2-oxanyl]oxy]-12,14-dihydroxy-10,13-dimethyl-1,2,3,4,5,6,7,8,9,11,12,15,16,17-tetradecahydrocyclopenta[a]phenanthren-17-yl]-2H-furan-5-one

>  <PUBCHEM_IUPAC_NAME_MARKUP>  (1) 
3-[(3<I>S</I>,5<I>R</I>,8<I>R</I>,9<I>S</I>,10<I>S</I>,12<I>R</I>,13<I>S</I>,14<I>S</I>,17<I>R</I>)-3-[(2<I>R</I>,4<I>S</I>,5<I>S</I>,6<I>R</I>)-5-[(2<I>S</I>,4<I>S</I>,5<I>S</I>,6<I>R</I>)-5-[(2<I>S</I>,4<I>S</I>,5<I>S</I>,6<I>R</I>)-4,5-dihydroxy-6-methyloxan-2-yl]oxy-4-hydroxy-6-methyloxan-2-yl]oxy-4-hydroxy-6-methyloxan-2-yl]oxy-12,14-dihydroxy-10,13-dimethyl-1,2,3,4,5,6,7,8,9,11,12,15,16,17-tetradecahydrocyclopenta[a]phenanthren-17-yl]-2<I>H</I>-furan-5-one

>  <PUBCHEM_IUPAC_NAME>  (1) 
3-[(3S,5R,8R,9S,10S,12R,13S,14S,17R)-3-[(2R,4S,5S,6R)-5-[(2S,4S,5S,6R)-5-[(2S,4S,5S,6R)-4,5-dihydroxy-6-methyloxan-2-yl]oxy-4-hydroxy-6-methyloxan-2-yl]oxy-4-hydroxy-6-methyloxan-2-yl]oxy-12,14-dihydroxy-10,13-dimethyl-1,2,3,4,5,6,7,8,9,11,12,15,16,17-tetradecahydrocyclopenta[a]phenanthren-17-yl]-2H-furan-5-one

>  <PUBCHEM_IUPAC_SYSTEMATIC_NAME>  (1) 
3-[(3S,5R,8R,9S,10S,12R,13S,14S,17R)-10,13-dimethyl-3-[(2R,4S,5S,6R)-6-methyl-5-[(2S,4S,5S,6R)-6-methyl-5-[(2S,4S,5S,6R)-6-methyl-4,5-bis(oxidanyl)oxan-2-yl]oxy-4-oxidanyl-oxan-2-yl]oxy-4-oxidanyl-oxan-2-yl]oxy-12,14-bis(oxidanyl)-1,2,3,4,5,6,7,8,9,11,12,15,16,17-tetradecahydrocyclopenta[a]phenanthren-17-yl]-2H-furan-5-one

>  <PUBCHEM_IUPAC_TRADITIONAL_NAME>  (1) 
3-[(3S,5R,8R,9S,10S,12R,13S,14S,17R)-3-[(2R,4S,5S,6R)-5-[(2S,4S,5S,6R)-5-[(2S,4S,5S,6R)-4,5-dihydroxy-6-methyl-tetrahydropyran-2-yl]oxy-4-hydroxy-6-methyl-tetrahydropyran-2-yl]oxy-4-hydroxy-6-methyl-tetrahydropyran-2-yl]oxy-12,14-dihydroxy-10,13-dimethyl-1,2,3,4,5,6,7,8,9,11,12,15,16,17-tetradecahydrocyclopenta[a]phenanthren-17-yl]-2H-furan-5-one

>  <PUBCHEM_IUPAC_INCHI>  (1) 
InChI=1S/C41H64O14/c1-19-36(47)28(42)15-34(50-19)54-38-21(3)52-35(17-30(38)44)55-37-20(2)51-33(16-29(37)43)53-24-8-10-39(4)23(13-24)6-7-26-27(39)14-31(45)40(5)25(9-11-41(26,40)48)22-12-32(46)49-18-22/h12,19-21,23-31,33-38,42-45,47-48H,6-11,13-18H2,1-5H3/t19-,20-,21-,23-,24+,25-,26-,27+,28+,29+,30+,31-,33+,34+,35+,36-,37-,38-,39+,40+,41+/m1/s1

>  <PUBCHEM_IUPAC_INCHIKEY>  (1) 
LTMHDMANZUZIPE-PUGKRICDSA-N

>  <PUBCHEM_XLOGP3>  (1) 
1.3

>  <PUBCHEM_EXACT_MASS>  (1) 
780.42960671

>  <PUBCHEM_MOLECULAR_FORMULA>  (1) 
C41H64O14

>  <PUBCHEM_MOLECULAR_WEIGHT>  (1) 
780.9

>  <PUBCHEM_OPENEYE_CAN_SMILES>  (1) 
CC1C(C(CC(O1)OC2C(OC(CC2O)OC3C(OC(CC3O)OC4CCC5(C(C4)CCC6C5CC(C7(C6(CCC7C8=CC(=O)OC8)O)C)O)C)C)C)O)O

>  <PUBCHEM_OPENEYE_ISO_SMILES>  (1) 
C[C@@H]1[C@H]([C@H](C[C@@H](O1)O[C@@H]2[C@H](O[C@H](C[C@@H]2O)O[C@@H]3[C@H](O[C@H](C[C@@H]3O)O[C@H]4CC[C@]5([C@@H](C4)CC[C@@H]6[C@@H]5C[C@H]([C@]7([C@@]6(CC[C@@H]7C8=CC(=O)OC8)O)C)O)C)C)C)O)O

>  <PUBCHEM_CACTVS_TPSA>  (1) 
203

>  <PUBCHEM_MONOISOTOPIC_WEIGHT>  (1) 
780.42960671

>  <PUBCHEM_TOTAL_CHARGE>  (1) 
0

>  <PUBCHEM_HEAVY_ATOM_COUNT>  (1) 
55

>  <PUBCHEM_ATOM_DEF_STEREO_COUNT>  (1) 
21

>  <PUBCHEM_ATOM_UDEF_STEREO_COUNT>  (1) 
0

>  <PUBCHEM_BOND_DEF_STEREO_COUNT>  (1) 
0

>  <PUBCHEM_BOND_UDEF_STEREO_COUNT>  (1) 
0

>  <PUBCHEM_ISOTOPIC_ATOM_COUNT>  (1) 
0

>  <PUBCHEM_COMPONENT_COUNT>  (1) 
1

>  <PUBCHEM_CACTVS_TAUTO_COUNT>  (1) 
-1

>  <PUBCHEM_COORDINATE_TYPE>  (1) 
1
5
255

>  <PUBCHEM_BONDANNOTATIONS>  (1) 
15  1  5
48  10  6
50  10  6
46  11  6
52  13  5
54  14  5
16  56  5
17  57  6
18  29  5
19  31  5
21  2  5
20  58  5
23  34  5
33  3  5
38  3  5
41  43  5
47  49  5
53  55  6
40  7  6
42  8  6
44  8  5

$$$$
