5317756
     RDKit          2D

 27 29  0  0  0  0  0  0  0  0999 V2000
    8.0901   -1.8017    0.0000 O   0  0  0  0  0  0  0  0  0  0  0  0
    6.3301    1.2329    0.0000 O   0  0  0  0  0  0  0  0  0  0  0  0
    4.5981   -1.7671    0.0000 O   0  0  0  0  0  0  0  0  0  0  0  0
    9.8602   -1.7912    0.0000 O   0  0  0  0  0  0  0  0  0  0  0  0
   10.7321   -1.2396    0.0000 O   0  0  0  0  0  0  0  0  0  0  0  0
   12.4525    1.7671    0.0000 O   0  0  0  0  0  0  0  0  0  0  0  0
    7.1962   -0.2671    0.0000 C   0  0  0  0  0  0  0  0  0  0  0  0
    5.4641   -0.2671    0.0000 C   0  0  0  0  0  0  0  0  0  0  0  0
    6.3301    0.2329    0.0000 C   0  0  0  0  0  0  0  0  0  0  0  0
    7.1962   -1.2671    0.0000 C   0  0  0  0  0  0  0  0  0  0  0  0
    4.5981    0.2329    0.0000 C   0  0  0  0  0  0  0  0  0  0  0  0
    5.4641   -1.2671    0.0000 C   0  0  0  0  0  0  0  0  0  0  0  0
    8.0901    0.2676    0.0000 C   0  0  0  0  0  0  0  0  0  0  0  0
    8.9962   -0.2463    0.0000 C   0  0  0  0  0  0  0  0  0  0  0  0
    6.3301   -1.7671    0.0000 C   0  0  0  0  0  0  0  0  0  0  0  0
    9.8602    0.2571    0.0000 C   0  0  0  0  0  0  0  0  0  0  0  0
    8.9962   -1.2879    0.0000 C   0  0  0  0  0  0  0  0  0  0  0  0
    3.7320   -0.2671    0.0000 C   0  0  0  0  0  0  0  0  0  0  0  0
    2.8660    0.2329    0.0000 C   0  0  0  0  0  0  0  0  0  0  0  0
   10.7282   -0.2396    0.0000 C   0  0  0  0  0  0  0  0  0  0  0  0
    9.8564    1.2571    0.0000 C   0  0  0  0  0  0  0  0  0  0  0  0
   11.5923    0.2638    0.0000 C   0  0  0  0  0  0  0  0  0  0  0  0
   10.7205    1.7604    0.0000 C   0  0  0  0  0  0  0  0  0  0  0  0
    5.4641    1.7329    0.0000 C   0  0  0  0  0  0  0  0  0  0  0  0
    2.0000   -0.2671    0.0000 C   0  0  0  0  0  0  0  0  0  0  0  0
    2.8660    1.2329    0.0000 C   0  0  0  0  0  0  0  0  0  0  0  0
   11.5884    1.2637    0.0000 C   0  0  0  0  0  0  0  0  0  0  0  0
  1 10  1  0
  1 17  1  0
  2  9  1  0
  2 24  1  0
  3 12  1  0
  4 17  2  0
  5 20  1  0
  6 27  1  0
  7  9  1  0
  7 10  2  0
  7 13  1  0
  8  9  2  0
  8 11  1  0
  8 12  1  0
 10 15  1  0
 11 18  1  0
 12 15  2  0
 13 14  2  0
 14 16  1  0
 14 17  1  0
 16 20  2  0
 16 21  1  0
 18 19  2  0
 19 25  1  0
 19 26  1  0
 20 22  1  0
 21 23  2  0
 22 27  2  0
 23 27  1  0
M  END
>  <PUBCHEM_COMPOUND_CID>  (1) 
5317756

>  <PUBCHEM_COMPOUND_CANONICALIZED>  (1) 
1

>  <PUBCHEM_CACTVS_COMPLEXITY>  (1) 
608

>  <PUBCHEM_CACTVS_HBOND_ACCEPTOR>  (1) 
6

>  <PUBCHEM_CACTVS_HBOND_DONOR>  (1) 
3

>  <PUBCHEM_CACTVS_ROTATABLE_BOND>  (1) 
4

>  <PUBCHEM_CACTVS_SUBSKEYS>  (1) 
AAADceB4OAAAAAAAAAAAAAAAAAAAAAAAAAAwYIAAAAAAAACBQAAAGgAACAAADASAmAIyDoAABgCIAiDSCAACCAAgIAAIiAEGCMgMJzKGNRqCeiClwBUIuYfK6OyOIAACCAAIAABAAAQQABAAAAAAAAAAAA==

>  <PUBCHEM_IUPAC_OPENEYE_NAME>  (1) 
3-(2,4-dihydroxyphenyl)-7-hydroxy-5-methoxy-6-(3-methylbut-2-enyl)chromen-2-one

>  <PUBCHEM_IUPAC_CAS_NAME>  (1) 
3-(2,4-dihydroxyphenyl)-7-hydroxy-5-methoxy-6-(3-methylbut-2-enyl)-1-benzopyran-2-one

>  <PUBCHEM_IUPAC_NAME_MARKUP>  (1) 
3-(2,4-dihydroxyphenyl)-7-hydroxy-5-methoxy-6-(3-methylbut-2-enyl)chromen-2-one

>  <PUBCHEM_IUPAC_NAME>  (1) 
3-(2,4-dihydroxyphenyl)-7-hydroxy-5-methoxy-6-(3-methylbut-2-enyl)chromen-2-one

>  <PUBCHEM_IUPAC_SYSTEMATIC_NAME>  (1) 
3-[2,4-bis(oxidanyl)phenyl]-5-methoxy-6-(3-methylbut-2-enyl)-7-oxidanyl-chromen-2-one

>  <PUBCHEM_IUPAC_TRADITIONAL_NAME>  (1) 
3-(2,4-dihydroxyphenyl)-7-hydroxy-5-methoxy-6-(3-methylbut-2-enyl)coumarin

>  <PUBCHEM_IUPAC_INCHI>  (1) 
InChI=1S/C21H20O6/c1-11(2)4-6-14-18(24)10-19-16(20(14)26-3)9-15(21(25)27-19)13-7-5-12(22)8-17(13)23/h4-5,7-10,22-24H,6H2,1-3H3

>  <PUBCHEM_IUPAC_INCHIKEY>  (1) 
NZYSZZDSYIBYLC-UHFFFAOYSA-N

>  <PUBCHEM_XLOGP3_AA>  (1) 
4.4

>  <PUBCHEM_EXACT_MASS>  (1) 
368.12598835

>  <PUBCHEM_MOLECULAR_FORMULA>  (1) 
C21H20O6

>  <PUBCHEM_MOLECULAR_WEIGHT>  (1) 
368.4

>  <PUBCHEM_OPENEYE_CAN_SMILES>  (1) 
CC(=CCC1=C(C2=C(C=C1O)OC(=O)C(=C2)C3=C(C=C(C=C3)O)O)OC)C

>  <PUBCHEM_OPENEYE_ISO_SMILES>  (1) 
CC(=CCC1=C(C2=C(C=C1O)OC(=O)C(=C2)C3=C(C=C(C=C3)O)O)OC)C

>  <PUBCHEM_CACTVS_TPSA>  (1) 
96.2

>  <PUBCHEM_MONOISOTOPIC_WEIGHT>  (1) 
368.12598835

>  <PUBCHEM_TOTAL_CHARGE>  (1) 
0

>  <PUBCHEM_HEAVY_ATOM_COUNT>  (1) 
27

>  <PUBCHEM_ATOM_DEF_STEREO_COUNT>  (1) 
0

>  <PUBCHEM_ATOM_UDEF_STEREO_COUNT>  (1) 
0

>  <PUBCHEM_BOND_DEF_STEREO_COUNT>  (1) 
0

>  <PUBCHEM_BOND_UDEF_STEREO_COUNT>  (1) 
0

>  <PUBCHEM_ISOTOPIC_ATOM_COUNT>  (1) 
0

>  <PUBCHEM_COMPONENT_COUNT>  (1) 
1

>  <PUBCHEM_CACTVS_TAUTO_COUNT>  (1) 
-1

>  <PUBCHEM_COORDINATE_TYPE>  (1) 
1
5
255

>  <PUBCHEM_BONDANNOTATIONS>  (1) 
1  10  8
1  17  8
10  15  8
12  15  8
13  14  8
14  17  8
16  20  8
16  21  8
20  22  8
21  23  8
22  27  8
23  27  8
7  10  8
7  13  8
7  9  8
8  12  8
8  9  8

$$$$
