12310492
     RDKit          2D

 22 24  0  0  1  0  0  0  0  0999 V2000
    2.5381   -2.0095    0.0000 O   0  0  0  0  0  0  0  0  0  0  0  0
    6.9464    2.5839    0.0000 O   0  0  0  0  0  0  0  0  0  0  0  0
    5.2022   -1.4854    0.0000 C   0  0  0  0  0  0  0  0  0  0  0  0
    5.2022   -0.4854    0.0000 C   0  0  0  0  0  0  0  0  0  0  0  0
    4.3083   -2.0200    0.0000 C   0  0  0  0  0  0  0  0  0  0  0  0
    4.3083    0.0493    0.0000 C   0  0  0  0  0  0  0  0  0  0  0  0
    3.4022   -1.5062    0.0000 C   0  0  0  0  0  0  0  0  0  0  0  0
    6.0682   -1.9854    0.0000 C   0  0  0  0  0  0  0  0  0  0  0  0
    3.4022   -0.4646    0.0000 C   0  0  0  0  0  0  0  0  0  0  0  0
    6.0682    0.0146    0.0000 C   0  0  0  0  0  0  0  0  0  0  0  0
    6.9343   -1.4854    0.0000 C   0  0  0  0  0  0  0  0  0  0  0  0
    5.2022    0.5146    0.0000 C   0  0  0  0  0  0  0  0  0  0  0  0
    3.8183   -2.8918    0.0000 C   0  0  0  0  0  0  0  0  0  0  0  0
    4.8183   -2.8802    0.0000 C   0  0  0  0  0  0  0  0  0  0  0  0
    6.9343   -0.4854    0.0000 C   0  0  0  0  0  0  0  0  0  0  0  0
    6.0522    1.0561    0.0000 C   0  0  0  0  0  0  0  0  0  0  0  0
    7.8443    0.0215    0.0000 C   0  0  0  0  0  0  0  0  0  0  0  0
    7.8523    1.0631    0.0000 C   0  0  0  0  0  0  0  0  0  0  0  0
    6.9502    1.5839    0.0000 C   0  0  0  0  0  0  0  0  0  0  0  0
    8.7202    1.5597    0.0000 C   0  0  0  0  0  0  0  0  0  0  0  0
    9.5844    1.0564    0.0000 C   0  0  0  0  0  0  0  0  0  0  0  0
    8.7241    2.5597    0.0000 C   0  0  0  0  0  0  0  0  0  0  0  0
  7  1  1  1
  2 19  1  0
  3  4  1  0
  3  5  1  0
  3  8  1  1
  4  6  1  0
  4 10  1  0
  4 12  1  1
  5  7  1  0
  5 13  1  0
  5 14  1  0
  6  9  1  0
  7  9  1  0
  8 11  1  0
 10 15  2  0
 10 16  1  0
 11 15  1  0
 15 17  1  0
 16 19  2  0
 17 18  2  0
 18 19  1  0
 18 20  1  0
 20 21  1  0
 20 22  1  0
M  END
>  <PUBCHEM_COMPOUND_CID>  (1) 
12310492

>  <PUBCHEM_COMPOUND_CANONICALIZED>  (1) 
1

>  <PUBCHEM_CACTVS_COMPLEXITY>  (1) 
416

>  <PUBCHEM_CACTVS_HBOND_ACCEPTOR>  (1) 
2

>  <PUBCHEM_CACTVS_HBOND_DONOR>  (1) 
2

>  <PUBCHEM_CACTVS_ROTATABLE_BOND>  (1) 
1

>  <PUBCHEM_CACTVS_SUBSKEYS>  (1) 
AAADceB4MAAAAAAAAAAAAAAAAAAAAAAAAAAwYMAAAAAAAADBAAAAGgAACAAADxSgmAIyBoAAAgCAAiBCAAACAAAgIAAAiAAGCIgINiKCERKAcAAkwBEImAeAwPAP4AADAAAYAADAAAYAADAAAAAAAAAAAA==

>  <PUBCHEM_IUPAC_OPENEYE_NAME>  (1) 
(2S,4aS,10aR)-7-isopropyl-1,1,4a-trimethyl-2,3,4,9,10,10a-hexahydrophenanthrene-2,6-diol

>  <PUBCHEM_IUPAC_CAS_NAME>  (1) 
(2S,4aS,10aR)-1,1,4a-trimethyl-7-propan-2-yl-2,3,4,9,10,10a-hexahydrophenanthrene-2,6-diol

>  <PUBCHEM_IUPAC_NAME_MARKUP>  (1) 
(2<I>S</I>,4<I>a</I><I>S</I>,10<I>a</I><I>R</I>)-1,1,4<I>a</I>-trimethyl-7-propan-2-yl-2,3,4,9,10,10<I>a</I>-hexahydrophenanthrene-2,6-diol

>  <PUBCHEM_IUPAC_NAME>  (1) 
(2S,4aS,10aR)-1,1,4a-trimethyl-7-propan-2-yl-2,3,4,9,10,10a-hexahydrophenanthrene-2,6-diol

>  <PUBCHEM_IUPAC_SYSTEMATIC_NAME>  (1) 
(2S,4aS,10aR)-1,1,4a-trimethyl-7-propan-2-yl-2,3,4,9,10,10a-hexahydrophenanthrene-2,6-diol

>  <PUBCHEM_IUPAC_TRADITIONAL_NAME>  (1) 
(2S,4aS,10aR)-7-isopropyl-1,1,4a-trimethyl-2,3,4,9,10,10a-hexahydrophenanthrene-2,6-diol

>  <PUBCHEM_IUPAC_INCHI>  (1) 
InChI=1S/C20H30O2/c1-12(2)14-10-13-6-7-17-19(3,4)18(22)8-9-20(17,5)15(13)11-16(14)21/h10-12,17-18,21-22H,6-9H2,1-5H3/t17-,18-,20+/m0/s1

>  <PUBCHEM_IUPAC_INCHIKEY>  (1) 
ODFCWXVQZAQDSO-CMKODMSKSA-N

>  <PUBCHEM_XLOGP3_AA>  (1) 
5.2

>  <PUBCHEM_EXACT_MASS>  (1) 
302.224580195

>  <PUBCHEM_MOLECULAR_FORMULA>  (1) 
C20H30O2

>  <PUBCHEM_MOLECULAR_WEIGHT>  (1) 
302.5

>  <PUBCHEM_OPENEYE_CAN_SMILES>  (1) 
CC(C)C1=C(C=C2C(=C1)CCC3C2(CCC(C3(C)C)O)C)O

>  <PUBCHEM_OPENEYE_ISO_SMILES>  (1) 
CC(C)C1=C(C=C2C(=C1)CC[C@@H]3[C@@]2(CC[C@@H](C3(C)C)O)C)O

>  <PUBCHEM_CACTVS_TPSA>  (1) 
40.5

>  <PUBCHEM_MONOISOTOPIC_WEIGHT>  (1) 
302.224580195

>  <PUBCHEM_TOTAL_CHARGE>  (1) 
0

>  <PUBCHEM_HEAVY_ATOM_COUNT>  (1) 
22

>  <PUBCHEM_ATOM_DEF_STEREO_COUNT>  (1) 
3

>  <PUBCHEM_ATOM_UDEF_STEREO_COUNT>  (1) 
0

>  <PUBCHEM_BOND_DEF_STEREO_COUNT>  (1) 
0

>  <PUBCHEM_BOND_UDEF_STEREO_COUNT>  (1) 
0

>  <PUBCHEM_ISOTOPIC_ATOM_COUNT>  (1) 
0

>  <PUBCHEM_COMPONENT_COUNT>  (1) 
1

>  <PUBCHEM_CACTVS_TAUTO_COUNT>  (1) 
-1

>  <PUBCHEM_COORDINATE_TYPE>  (1) 
1
5
255

>  <PUBCHEM_BONDANNOTATIONS>  (1) 
7  1  5
10  15  8
10  16  8
15  17  8
16  19  8
17  18  8
18  19  8
3  23  6
4  12  5

$$$$
