445154
     RDKit          2D

 17 18  0  0  0  0  0  0  0  0999 V2000
    5.4641   -3.5950    0.0000 O   0  0  0  0  0  0  0  0  0  0  0  0
    2.0000   -3.5950    0.0000 O   0  0  0  0  0  0  0  0  0  0  0  0
    4.5981    3.9050    0.0000 O   0  0  0  0  0  0  0  0  0  0  0  0
    3.7320   -1.5950    0.0000 C   0  0  0  0  0  0  0  0  0  0  0  0
    4.5981    0.9050    0.0000 C   0  0  0  0  0  0  0  0  0  0  0  0
    3.7320   -0.5950    0.0000 C   0  0  0  0  0  0  0  0  0  0  0  0
    4.5981   -0.0950    0.0000 C   0  0  0  0  0  0  0  0  0  0  0  0
    2.8660   -2.0950    0.0000 C   0  0  0  0  0  0  0  0  0  0  0  0
    4.5981   -2.0950    0.0000 C   0  0  0  0  0  0  0  0  0  0  0  0
    4.5981   -3.0950    0.0000 C   0  0  0  0  0  0  0  0  0  0  0  0
    2.8660   -3.0950    0.0000 C   0  0  0  0  0  0  0  0  0  0  0  0
    5.4641    1.4050    0.0000 C   0  0  0  0  0  0  0  0  0  0  0  0
    3.7320    1.4050    0.0000 C   0  0  0  0  0  0  0  0  0  0  0  0
    3.7320   -3.5950    0.0000 C   0  0  0  0  0  0  0  0  0  0  0  0
    5.4641    2.4050    0.0000 C   0  0  0  0  0  0  0  0  0  0  0  0
    3.7320    2.4050    0.0000 C   0  0  0  0  0  0  0  0  0  0  0  0
    4.5981    2.9050    0.0000 C   0  0  0  0  0  0  0  0  0  0  0  0
  1 10  1  0
  2 11  1  0
  3 17  1  0
  4  6  1  0
  4  8  2  0
  4  9  1  0
  5  7  1  0
  5 12  2  0
  5 13  1  0
  6  7  2  0
  8 11  1  0
  9 10  2  0
 10 14  1  0
 11 14  2  0
 12 15  1  0
 13 16  2  0
 15 17  2  0
 16 17  1  0
M  END
>  <PUBCHEM_COMPOUND_CID>  (1) 
445154

>  <PUBCHEM_COMPOUND_CANONICALIZED>  (1) 
1

>  <PUBCHEM_CACTVS_COMPLEXITY>  (1) 
246

>  <PUBCHEM_CACTVS_HBOND_ACCEPTOR>  (1) 
3

>  <PUBCHEM_CACTVS_HBOND_DONOR>  (1) 
3

>  <PUBCHEM_CACTVS_ROTATABLE_BOND>  (1) 
2

>  <PUBCHEM_CACTVS_SUBSKEYS>  (1) 
AAADccBwMAAAAAAAAAAAAAAAAAAAAAAAAAAwYAAAAAAAAAABQAAAGgAACAAADASAmAAwBoAAAgCAAiBCAAACAAAgIAAIiAAGCIgIJyKCERKAcAAlwBUImAeA4BQOIAABCAAAAABAAAIQAAAAAAAAAAAAAA==

>  <PUBCHEM_IUPAC_OPENEYE_NAME>  (1) 
5-[(E)-2-(4-hydroxyphenyl)vinyl]benzene-1,3-diol

>  <PUBCHEM_IUPAC_CAS_NAME>  (1) 
5-[(E)-2-(4-hydroxyphenyl)ethenyl]benzene-1,3-diol

>  <PUBCHEM_IUPAC_NAME_MARKUP>  (1) 
5-[(<I>E</I>)-2-(4-hydroxyphenyl)ethenyl]benzene-1,3-diol

>  <PUBCHEM_IUPAC_NAME>  (1) 
5-[(E)-2-(4-hydroxyphenyl)ethenyl]benzene-1,3-diol

>  <PUBCHEM_IUPAC_SYSTEMATIC_NAME>  (1) 
5-[(E)-2-(4-hydroxyphenyl)ethenyl]benzene-1,3-diol

>  <PUBCHEM_IUPAC_TRADITIONAL_NAME>  (1) 
5-[(E)-2-(4-hydroxyphenyl)vinyl]resorcinol

>  <PUBCHEM_IUPAC_INCHI>  (1) 
InChI=1S/C14H12O3/c15-12-5-3-10(4-6-12)1-2-11-7-13(16)9-14(17)8-11/h1-9,15-17H/b2-1+

>  <PUBCHEM_IUPAC_INCHIKEY>  (1) 
LUKBXSAWLPMMSZ-OWOJBTEDSA-N

>  <PUBCHEM_XLOGP3_AA>  (1) 
3.1

>  <PUBCHEM_EXACT_MASS>  (1) 
228.078644241

>  <PUBCHEM_MOLECULAR_FORMULA>  (1) 
C14H12O3

>  <PUBCHEM_MOLECULAR_WEIGHT>  (1) 
228.24

>  <PUBCHEM_OPENEYE_CAN_SMILES>  (1) 
C1=CC(=CC=C1C=CC2=CC(=CC(=C2)O)O)O

>  <PUBCHEM_OPENEYE_ISO_SMILES>  (1) 
C1=CC(=CC=C1/C=C/C2=CC(=CC(=C2)O)O)O

>  <PUBCHEM_CACTVS_TPSA>  (1) 
60.7

>  <PUBCHEM_MONOISOTOPIC_WEIGHT>  (1) 
228.078644241

>  <PUBCHEM_TOTAL_CHARGE>  (1) 
0

>  <PUBCHEM_HEAVY_ATOM_COUNT>  (1) 
17

>  <PUBCHEM_ATOM_DEF_STEREO_COUNT>  (1) 
0

>  <PUBCHEM_ATOM_UDEF_STEREO_COUNT>  (1) 
0

>  <PUBCHEM_BOND_DEF_STEREO_COUNT>  (1) 
1

>  <PUBCHEM_BOND_UDEF_STEREO_COUNT>  (1) 
0

>  <PUBCHEM_ISOTOPIC_ATOM_COUNT>  (1) 
0

>  <PUBCHEM_COMPONENT_COUNT>  (1) 
1

>  <PUBCHEM_CACTVS_TAUTO_COUNT>  (1) 
-1

>  <PUBCHEM_COORDINATE_TYPE>  (1) 
1
5
255

>  <PUBCHEM_BONDANNOTATIONS>  (1) 
10  14  8
11  14  8
12  15  8
13  16  8
15  17  8
16  17  8
4  8  8
4  9  8
5  12  8
5  13  8
8  11  8
9  10  8

$$$$
