5281078
     RDKit          2D

 31 33  0  0  0  0  0  0  0  0999 V2000
    2.0000   -0.6550    0.0000 O   0  0  0  0  0  0  0  0  0  0  0  0
   15.6542   -0.1550    0.0000 O   0  0  0  0  0  0  0  0  0  0  0  0
    6.3301    0.8450    0.0000 O   0  0  0  0  0  0  0  0  0  0  0  0
   11.5263   -1.1550    0.0000 O   0  0  0  0  0  0  0  0  0  0  0  0
   13.2583    1.8450    0.0000 O   0  0  0  0  0  0  0  0  0  0  0  0
   15.3812    1.6002    0.0000 O   0  0  0  0  0  0  0  0  0  0  0  0
    7.1962   -0.6550    0.0000 O   0  0  0  0  0  0  0  0  0  0  0  0
    3.7320    0.3450    0.0000 N   0  0  0  0  0  0  0  0  0  0  0  0
    3.7320   -0.6550    0.0000 C   0  0  0  0  0  0  0  0  0  0  0  0
    2.8660    0.8450    0.0000 C   0  0  0  0  0  0  0  0  0  0  0  0
    4.5981    0.8450    0.0000 C   0  0  0  0  0  0  0  0  0  0  0  0
    2.8660   -1.1550    0.0000 C   0  0  0  0  0  0  0  0  0  0  0  0
    2.0000    0.3450    0.0000 C   0  0  0  0  0  0  0  0  0  0  0  0
   14.1244   -0.6550    0.0000 C   0  0  0  0  0  0  0  0  0  0  0  0
   12.3923    0.3450    0.0000 C   0  0  0  0  0  0  0  0  0  0  0  0
   14.1244    0.3450    0.0000 C   0  0  0  0  0  0  0  0  0  0  0  0
   13.2583   -1.1550    0.0000 C   0  0  0  0  0  0  0  0  0  0  0  0
    5.4641    0.3450    0.0000 C   0  0  0  0  0  0  0  0  0  0  0  0
   12.3923   -0.6550    0.0000 C   0  0  0  0  0  0  0  0  0  0  0  0
   13.2583    0.8450    0.0000 C   0  0  0  0  0  0  0  0  0  0  0  0
   11.5263    0.8450    0.0000 C   0  0  0  0  0  0  0  0  0  0  0  0
   15.0706   -0.9597    0.0000 C   0  0  0  0  0  0  0  0  0  0  0  0
   10.6603    0.3450    0.0000 C   0  0  0  0  0  0  0  0  0  0  0  0
   15.0706    0.6497    0.0000 C   0  0  0  0  0  0  0  0  0  0  0  0
    8.9282    0.3450    0.0000 C   0  0  0  0  0  0  0  0  0  0  0  0
    9.7942    0.8450    0.0000 C   0  0  0  0  0  0  0  0  0  0  0  0
   13.2583   -2.1550    0.0000 C   0  0  0  0  0  0  0  0  0  0  0  0
    8.0622    0.8450    0.0000 C   0  0  0  0  0  0  0  0  0  0  0  0
    7.1962    0.3450    0.0000 C   0  0  0  0  0  0  0  0  0  0  0  0
    9.7942    1.8450    0.0000 C   0  0  0  0  0  0  0  0  0  0  0  0
   11.5263   -2.1550    0.0000 C   0  0  0  0  0  0  0  0  0  0  0  0
  1 12  1  0
  1 13  1  0
  2 22  1  0
  2 24  1  0
  3 18  1  0
  3 29  1  0
  4 19  1  0
  4 31  1  0
  5 20  1  0
  6 24  2  0
  7 29  2  0
  8  9  1  0
  8 10  1  0
  8 11  1  0
  9 12  1  0
 10 13  1  0
 11 18  1  0
 14 16  2  0
 14 17  1  0
 14 22  1  0
 15 19  1  0
 15 20  2  0
 15 21  1  0
 16 20  1  0
 16 24  1  0
 17 19  2  0
 17 27  1  0
 21 23  1  0
 23 26  2  0
 25 26  1  0
 25 28  1  0
 26 30  1  0
 28 29  1  0
M  END
>  <PUBCHEM_COMPOUND_CID>  (1) 
5281078

>  <PUBCHEM_COMPOUND_CANONICALIZED>  (1) 
1

>  <PUBCHEM_CACTVS_COMPLEXITY>  (1) 
646

>  <PUBCHEM_CACTVS_HBOND_ACCEPTOR>  (1) 
8

>  <PUBCHEM_CACTVS_HBOND_DONOR>  (1) 
1

>  <PUBCHEM_CACTVS_ROTATABLE_BOND>  (1) 
10

>  <PUBCHEM_CACTVS_SUBSKEYS>  (1) 
AAADceB6OAAAAAAAAAAAAAAAAAAAASAAAAA8QAAAAAAAAEgBAAAAHgAACAAADAThmAYCDoMABgCIAiDSCAACCAAkIAAAiAEMCMgOJzaGNRqDcWAl4BWYuQfK7PzO4AADCAAYAADAAAYQADAAAAAAAAAAAA==

>  <PUBCHEM_IUPAC_OPENEYE_NAME>  (1) 
2-morpholinoethyl (E)-6-(4-hydroxy-6-methoxy-7-methyl-3-oxo-1H-isobenzofuran-5-yl)-4-methyl-hex-4-enoate

>  <PUBCHEM_IUPAC_CAS_NAME>  (1) 
(E)-6-(4-hydroxy-6-methoxy-7-methyl-3-oxo-1H-isobenzofuran-5-yl)-4-methyl-4-hexenoic acid 2-(4-morpholinyl)ethyl ester

>  <PUBCHEM_IUPAC_NAME_MARKUP>  (1) 
2-morpholin-4-ylethyl (<I>E</I>)-6-(4-hydroxy-6-methoxy-7-methyl-3-oxo-1<I>H</I>-2-benzofuran-5-yl)-4-methylhex-4-enoate

>  <PUBCHEM_IUPAC_NAME>  (1) 
2-morpholin-4-ylethyl (E)-6-(4-hydroxy-6-methoxy-7-methyl-3-oxo-1H-2-benzofuran-5-yl)-4-methylhex-4-enoate

>  <PUBCHEM_IUPAC_SYSTEMATIC_NAME>  (1) 
2-morpholin-4-ylethyl (E)-6-(6-methoxy-7-methyl-4-oxidanyl-3-oxidanylidene-1H-2-benzofuran-5-yl)-4-methyl-hex-4-enoate

>  <PUBCHEM_IUPAC_TRADITIONAL_NAME>  (1) 
(E)-6-(4-hydroxy-3-keto-6-methoxy-7-methyl-phthalan-5-yl)-4-methyl-hex-4-enoic acid 2-morpholinoethyl ester

>  <PUBCHEM_IUPAC_INCHI>  (1) 
InChI=1S/C23H31NO7/c1-15(5-7-19(25)30-13-10-24-8-11-29-12-9-24)4-6-17-21(26)20-18(14-31-23(20)27)16(2)22(17)28-3/h4,26H,5-14H2,1-3H3/b15-4+

>  <PUBCHEM_IUPAC_INCHIKEY>  (1) 
RTGDFNSFWBGLEC-SYZQJQIISA-N

>  <PUBCHEM_XLOGP3_AA>  (1) 
3.2

>  <PUBCHEM_EXACT_MASS>  (1) 
433.21005233

>  <PUBCHEM_MOLECULAR_FORMULA>  (1) 
C23H31NO7

>  <PUBCHEM_MOLECULAR_WEIGHT>  (1) 
433.5

>  <PUBCHEM_OPENEYE_CAN_SMILES>  (1) 
CC1=C2COC(=O)C2=C(C(=C1OC)CC=C(C)CCC(=O)OCCN3CCOCC3)O

>  <PUBCHEM_OPENEYE_ISO_SMILES>  (1) 
CC1=C2COC(=O)C2=C(C(=C1OC)C/C=C(\C)/CCC(=O)OCCN3CCOCC3)O

>  <PUBCHEM_CACTVS_TPSA>  (1) 
94.5

>  <PUBCHEM_MONOISOTOPIC_WEIGHT>  (1) 
433.21005233

>  <PUBCHEM_TOTAL_CHARGE>  (1) 
0

>  <PUBCHEM_HEAVY_ATOM_COUNT>  (1) 
31

>  <PUBCHEM_ATOM_DEF_STEREO_COUNT>  (1) 
0

>  <PUBCHEM_ATOM_UDEF_STEREO_COUNT>  (1) 
0

>  <PUBCHEM_BOND_DEF_STEREO_COUNT>  (1) 
1

>  <PUBCHEM_BOND_UDEF_STEREO_COUNT>  (1) 
0

>  <PUBCHEM_ISOTOPIC_ATOM_COUNT>  (1) 
0

>  <PUBCHEM_COMPONENT_COUNT>  (1) 
1

>  <PUBCHEM_CACTVS_TAUTO_COUNT>  (1) 
-1

>  <PUBCHEM_COORDINATE_TYPE>  (1) 
1
5
255

>  <PUBCHEM_BONDANNOTATIONS>  (1) 
14  16  8
14  17  8
15  19  8
15  20  8
16  20  8
17  19  8

$$$$
