122844
     RDKit          2D

 33 37  0  0  1  0  0  0  0  0999 V2000
   10.9251    0.3969    0.0000 O   0  0  0  0  0  0  0  0  0  0  0  0
   10.0707   -1.1097    0.0000 O   0  0  0  0  0  0  0  0  0  0  0  0
    2.0000   -2.6896    0.0000 O   0  0  0  0  0  0  0  0  0  0  0  0
    7.3931   -0.6372    0.0000 C   0  0  0  0  0  0  0  0  0  0  0  0
    6.5271   -1.1372    0.0000 C   0  0  0  0  0  0  0  0  0  0  0  0
    5.6610   -0.6372    0.0000 C   0  0  0  0  0  0  0  0  0  0  0  0
    7.3931    0.3628    0.0000 C   0  0  0  0  0  0  0  0  0  0  0  0
    4.7510   -1.1441    0.0000 C   0  0  0  0  0  0  0  0  0  0  0  0
    8.2870    0.8974    0.0000 C   0  0  0  0  0  0  0  0  0  0  0  0
    9.1931    0.3836    0.0000 C   0  0  0  0  0  0  0  0  0  0  0  0
    4.7430   -2.1857    0.0000 C   0  0  0  0  0  0  0  0  0  0  0  0
    8.2870   -1.1719    0.0000 C   0  0  0  0  0  0  0  0  0  0  0  0
    6.5431   -2.1788    0.0000 C   0  0  0  0  0  0  0  0  0  0  0  0
    5.6610    0.3628    0.0000 C   0  0  0  0  0  0  0  0  0  0  0  0
    6.5271    0.8628    0.0000 C   0  0  0  0  0  0  0  0  0  0  0  0
    9.1931   -0.6581    0.0000 C   0  0  0  0  0  0  0  0  0  0  0  0
    5.6451   -2.7065    0.0000 C   0  0  0  0  0  0  0  0  0  0  0  0
    8.4971    1.9113    0.0000 C   0  0  0  0  0  0  0  0  0  0  0  0
    7.7352   -1.5769    0.0000 C   0  0  0  0  0  0  0  0  0  0  0  0
    7.1698   -1.9033    0.0000 C   0  0  0  0  0  0  0  0  0  0  0  0
    9.9554    1.0843    0.0000 C   0  0  0  0  0  0  0  0  0  0  0  0
    3.8242   -0.5800    0.0000 C   0  0  0  0  0  0  0  0  0  0  0  0
    3.8076   -2.7354    0.0000 C   0  0  0  0  0  0  0  0  0  0  0  0
    9.5262    2.0266    0.0000 C   0  0  0  0  0  0  0  0  0  0  0  0
    4.7587   -0.1441    0.0000 C   0  0  0  0  0  0  0  0  0  0  0  0
    2.8763   -1.1080    0.0000 C   0  0  0  0  0  0  0  0  0  0  0  0
   10.0629   -0.1097    0.0000 C   0  0  0  0  0  0  0  0  0  0  0  0
    2.8680   -2.1929    0.0000 C   0  0  0  0  0  0  0  0  0  0  0  0
    7.8236    2.6505    0.0000 C   0  0  0  0  0  0  0  0  0  0  0  0
    3.3109   -3.6034    0.0000 C   0  0  0  0  0  0  0  0  0  0  0  0
    4.3109   -3.5995    0.0000 C   0  0  0  0  0  0  0  0  0  0  0  0
    8.1269    3.6034    0.0000 C   0  0  0  0  0  0  0  0  0  0  0  0
    6.8467    2.4367    0.0000 C   0  0  0  0  0  0  0  0  0  0  0  0
  1 27  1  0
  2 27  2  0
  3 28  2  0
  4  5  1  0
  4  7  1  0
  4 12  1  0
  4 19  1  6
  5  6  1  0
  5 13  1  0
  5 20  1  1
  6  8  1  0
  6 14  1  1
  7  9  1  0
  7 15  1  6
  8 11  1  0
  8 22  1  0
  8 25  1  1
  9 10  1  0
  9 18  1  1
 10 16  1  0
 10 21  1  0
 10 27  1  1
 11 17  1  1
 11 23  1  0
 12 16  1  0
 13 17  1  0
 14 15  1  0
 18 24  1  0
 18 29  1  6
 21 24  1  0
 22 26  1  0
 23 28  1  0
 23 30  1  0
 23 31  1  0
 26 28  1  0
 29 32  1  0
 29 33  2  0
M  END
>  <PUBCHEM_COMPOUND_CID>  (1) 
122844

>  <PUBCHEM_COMPOUND_CANONICALIZED>  (1) 
1

>  <PUBCHEM_CACTVS_COMPLEXITY>  (1) 
902

>  <PUBCHEM_CACTVS_HBOND_ACCEPTOR>  (1) 
3

>  <PUBCHEM_CACTVS_HBOND_DONOR>  (1) 
1

>  <PUBCHEM_CACTVS_ROTATABLE_BOND>  (1) 
2

>  <PUBCHEM_CACTVS_SUBSKEYS>  (1) 
AAADcfB4MAAAAAAAAAAAAAAAAAAAAYAAAAAwYMGAAAAAAGDAAAAAGgAACAAADwSAgAACCAAAAgCIAoDSCAAAAAAgAAAAAAEAAAgAABIAAQAAQAAEgAAAAAGIyPCPgAAAAAAAAACAAAQAACAAAQAACAAAAA==

>  <PUBCHEM_IUPAC_OPENEYE_NAME>  (1) 
(1R,3aS,5aR,5bR,7aR,11aR,11bR,13aR,13bR)-1-isopropenyl-5a,5b,8,8,11a-pentamethyl-9-oxo-2,3,4,5,6,7,7a,10,11,11b,12,13,13a,13b-tetradecahydro-1H-cyclopenta[a]chrysene-3a-carboxylic acid

>  <PUBCHEM_IUPAC_CAS_NAME>  (1) 
(1R,3aS,5aR,5bR,7aR,11aR,11bR,13aR,13bR)-5a,5b,8,8,11a-pentamethyl-1-(1-methylethenyl)-9-oxo-2,3,4,5,6,7,7a,10,11,11b,12,13,13a,13b-tetradecahydro-1H-cyclopenta[a]chrysene-3a-carboxylic acid

>  <PUBCHEM_IUPAC_NAME_MARKUP>  (1) 
(1<I>R</I>,3<I>a</I><I>S</I>,5<I>a</I><I>R</I>,5<I>b</I><I>R</I>,7<I>a</I><I>R</I>,11<I>a</I><I>R</I>,11<I>b</I><I>R</I>,13<I>a</I><I>R</I>,13<I>b</I><I>R</I>)-5<I>a</I>,5<I>b</I>,8,8,11<I>a</I>-pentamethyl-9-oxo-1-prop-1-en-2-yl-2,3,4,5,6,7,7<I>a</I>,10,11,11<I>b</I>,12,13,13<I>a</I>,13<I>b</I>-tetradecahydro-1<I>H</I>-cyclopenta[a]chrysene-3<I>a</I>-carboxylic acid

>  <PUBCHEM_IUPAC_NAME>  (1) 
(1R,3aS,5aR,5bR,7aR,11aR,11bR,13aR,13bR)-5a,5b,8,8,11a-pentamethyl-9-oxo-1-prop-1-en-2-yl-2,3,4,5,6,7,7a,10,11,11b,12,13,13a,13b-tetradecahydro-1H-cyclopenta[a]chrysene-3a-carboxylic acid

>  <PUBCHEM_IUPAC_SYSTEMATIC_NAME>  (1) 
(1R,3aS,5aR,5bR,7aR,11aR,11bR,13aR,13bR)-5a,5b,8,8,11a-pentamethyl-9-oxidanylidene-1-prop-1-en-2-yl-2,3,4,5,6,7,7a,10,11,11b,12,13,13a,13b-tetradecahydro-1H-cyclopenta[a]chrysene-3a-carboxylic acid

>  <PUBCHEM_IUPAC_TRADITIONAL_NAME>  (1) 
(1R,3aS,5aR,5bR,7aR,11aR,11bR,13aR,13bR)-1-isopropenyl-9-keto-5a,5b,8,8,11a-pentamethyl-2,3,4,5,6,7,7a,10,11,11b,12,13,13a,13b-tetradecahydro-1H-cyclopenta[a]chrysene-3a-carboxylic acid

>  <PUBCHEM_IUPAC_INCHI>  (1) 
InChI=1S/C30H46O3/c1-18(2)19-10-15-30(25(32)33)17-16-28(6)20(24(19)30)8-9-22-27(5)13-12-23(31)26(3,4)21(27)11-14-29(22,28)7/h19-22,24H,1,8-17H2,2-7H3,(H,32,33)/t19-,20+,21-,22+,24+,27-,28+,29+,30-/m0/s1

>  <PUBCHEM_IUPAC_INCHIKEY>  (1) 
SLJTWDNVZKIDAU-SVAFSPIFSA-N

>  <PUBCHEM_XLOGP3_AA>  (1) 
7.9

>  <PUBCHEM_EXACT_MASS>  (1) 
454.34469533

>  <PUBCHEM_MOLECULAR_FORMULA>  (1) 
C30H46O3

>  <PUBCHEM_MOLECULAR_WEIGHT>  (1) 
454.7

>  <PUBCHEM_OPENEYE_CAN_SMILES>  (1) 
CC(=C)C1CCC2(C1C3CCC4C5(CCC(=O)C(C5CCC4(C3(CC2)C)C)(C)C)C)C(=O)O

>  <PUBCHEM_OPENEYE_ISO_SMILES>  (1) 
CC(=C)[C@@H]1CC[C@]2([C@H]1[C@H]3CC[C@@H]4[C@]5(CCC(=O)C([C@@H]5CC[C@]4([C@@]3(CC2)C)C)(C)C)C)C(=O)O

>  <PUBCHEM_CACTVS_TPSA>  (1) 
54.4

>  <PUBCHEM_MONOISOTOPIC_WEIGHT>  (1) 
454.34469533

>  <PUBCHEM_TOTAL_CHARGE>  (1) 
0

>  <PUBCHEM_HEAVY_ATOM_COUNT>  (1) 
33

>  <PUBCHEM_ATOM_DEF_STEREO_COUNT>  (1) 
9

>  <PUBCHEM_ATOM_UDEF_STEREO_COUNT>  (1) 
0

>  <PUBCHEM_BOND_DEF_STEREO_COUNT>  (1) 
0

>  <PUBCHEM_BOND_UDEF_STEREO_COUNT>  (1) 
0

>  <PUBCHEM_ISOTOPIC_ATOM_COUNT>  (1) 
0

>  <PUBCHEM_COMPONENT_COUNT>  (1) 
1

>  <PUBCHEM_CACTVS_TAUTO_COUNT>  (1) 
-1

>  <PUBCHEM_COORDINATE_TYPE>  (1) 
1
5
255

>  <PUBCHEM_BONDANNOTATIONS>  (1) 
10  27  5
11  37  6
18  29  6
4  19  6
5  20  5
6  34  6
7  35  5
8  25  5
9  36  6

$$$$
