10525573
     RDKit          2D

 30 34  0  0  1  0  0  0  0  0999 V2000
    5.5001   -3.2578    0.0000 O   0  0  0  0  0  0  0  0  0  0  0  0
    9.0462   -1.2127    0.0000 O   0  0  0  0  0  0  0  0  0  0  0  0
    2.8641    2.3566    0.0000 O   0  0  0  0  0  0  0  0  0  0  0  0
    9.0462    0.8356    0.0000 O   0  0  0  0  0  0  0  0  0  0  0  0
    4.6380    3.3807    0.0000 O   0  0  0  0  0  0  0  0  0  0  0  0
    4.6341   -2.7578    0.0000 N   0  0  0  0  0  0  0  0  0  0  0  0
    3.7320   -2.2370    0.0000 C   0  0  0  0  0  0  0  0  0  0  0  0
    4.4162   -3.7700    0.0000 C   0  0  0  0  0  0  0  0  0  0  0  0
    2.9643   -2.9318    0.0000 C   0  0  0  0  0  0  0  0  0  0  0  0
    5.5322   -2.2300    0.0000 C   0  0  0  0  0  0  0  0  0  0  0  0
    3.7401   -1.1954    0.0000 C   0  0  0  0  0  0  0  0  0  0  0  0
    3.3863   -3.8774    0.0000 C   0  0  0  0  0  0  0  0  0  0  0  0
    5.5161   -1.1885    0.0000 C   0  0  0  0  0  0  0  0  0  0  0  0
    4.6501   -0.6885    0.0000 C   0  0  0  0  0  0  0  0  0  0  0  0
    6.3821   -0.6885    0.0000 C   0  0  0  0  0  0  0  0  0  0  0  0
    4.6501    0.3115    0.0000 C   0  0  0  0  0  0  0  0  0  0  0  0
    6.3821    0.3115    0.0000 C   0  0  0  0  0  0  0  0  0  0  0  0
    5.5161    0.8115    0.0000 C   0  0  0  0  0  0  0  0  0  0  0  0
    7.2761   -1.2232    0.0000 C   0  0  0  0  0  0  0  0  0  0  0  0
    3.7401    0.8183    0.0000 C   0  0  0  0  0  0  0  0  0  0  0  0
    7.2761    0.8461    0.0000 C   0  0  0  0  0  0  0  0  0  0  0  0
    5.5322    1.8530    0.0000 C   0  0  0  0  0  0  0  0  0  0  0  0
    8.1821   -0.7093    0.0000 C   0  0  0  0  0  0  0  0  0  0  0  0
    3.7320    1.8599    0.0000 C   0  0  0  0  0  0  0  0  0  0  0  0
    8.1821    0.3323    0.0000 C   0  0  0  0  0  0  0  0  0  0  0  0
    4.6341    2.3807    0.0000 C   0  0  0  0  0  0  0  0  0  0  0  0
    9.9142   -0.7160    0.0000 C   0  0  0  0  0  0  0  0  0  0  0  0
    2.0000    1.8532    0.0000 C   0  0  0  0  0  0  0  0  0  0  0  0
    9.0424    1.8356    0.0000 C   0  0  0  0  0  0  0  0  0  0  0  0
    5.5059    3.8774    0.0000 C   0  0  0  0  0  0  0  0  0  0  0  0
  1  6  1  0
  2 23  1  0
  2 27  1  0
  3 24  1  0
  3 28  1  0
  4 25  1  0
  4 29  1  0
  5 26  1  0
  5 30  1  0
  6  7  1  0
  6  8  1  0
  6 10  1  0
  7  9  1  6
  7 11  1  0
  8 12  1  0
  9 12  1  0
 10 13  1  0
 11 14  1  0
 13 14  2  0
 13 15  1  0
 14 16  1  0
 15 17  2  0
 15 19  1  0
 16 18  2  0
 16 20  1  0
 17 18  1  0
 17 21  1  0
 18 22  1  0
 19 23  2  0
 20 24  2  0
 21 25  2  0
 22 26  2  0
 23 25  1  0
 24 26  1  0
M  CHG  2   1  -1   6   1
M  END
>  <PUBCHEM_COMPOUND_CID>  (1) 
10525573

>  <PUBCHEM_COMPOUND_CANONICALIZED>  (1) 
1

>  <PUBCHEM_CACTVS_COMPLEXITY>  (1) 
618

>  <PUBCHEM_CACTVS_HBOND_ACCEPTOR>  (1) 
5

>  <PUBCHEM_CACTVS_HBOND_DONOR>  (1) 
0

>  <PUBCHEM_CACTVS_ROTATABLE_BOND>  (1) 
4

>  <PUBCHEM_CACTVS_SUBSKEYS>  (1) 
AAADceB6OAAAAAAAAAAAAAAAAAAAAWAAAAA8YMEAAAAAAFjxVAAAHgAEAAAADCzBmAYyBsMQBACAAiBCAACCCAAgIAAgiAAOjIgNJiKEsBuEMCpkwBGKqAeQ0PIO4AADAAAQQADAAAYAACCAAAAAAAAAAA==

>  <PUBCHEM_IUPAC_OPENEYE_NAME>  (1) 
(13aR)-2,3,6,7-tetramethoxy-10-oxido-9,11,12,13,13a,14-hexahydrophenanthro[9,10-f]indolizin-10-ium

>  <PUBCHEM_IUPAC_CAS_NAME>  (1) 
(13aR)-2,3,6,7-tetramethoxy-10-oxido-9,11,12,13,13a,14-hexahydrophenanthro[9,10-f]indolizin-10-ium

>  <PUBCHEM_IUPAC_NAME_MARKUP>  (1) 
(13<I>a</I><I>R</I>)-2,3,6,7-tetramethoxy-10-oxido-9,11,12,13,13<I>a</I>,14-hexahydrophenanthro[9,10-f]indolizin-10-ium

>  <PUBCHEM_IUPAC_NAME>  (1) 
(13aR)-2,3,6,7-tetramethoxy-10-oxido-9,11,12,13,13a,14-hexahydrophenanthro[9,10-f]indolizin-10-ium

>  <PUBCHEM_IUPAC_SYSTEMATIC_NAME>  (1) 
(13aR)-2,3,6,7-tetramethoxy-10-oxidanidyl-9,11,12,13,13a,14-hexahydrophenanthro[9,10-f]indolizin-10-ium

>  <PUBCHEM_IUPAC_TRADITIONAL_NAME>  (1) 
(13aR)-2,3,6,7-tetramethoxy-10-oxido-9,11,12,13,13a,14-hexahydrophenanthr[9,10-f]indolizin-10-ium

>  <PUBCHEM_IUPAC_INCHI>  (1) 
InChI=1S/C24H27NO5/c1-27-21-9-16-15-8-14-6-5-7-25(14,26)13-20(15)19-12-24(30-4)23(29-3)11-18(19)17(16)10-22(21)28-2/h9-12,14H,5-8,13H2,1-4H3/t14-,25?/m1/s1

>  <PUBCHEM_IUPAC_INCHIKEY>  (1) 
JJGAPUUIERNMBQ-SUUGVPPDSA-N

>  <PUBCHEM_XLOGP3_AA>  (1) 
4.2

>  <PUBCHEM_EXACT_MASS>  (1) 
409.18892296

>  <PUBCHEM_MOLECULAR_FORMULA>  (1) 
C24H27NO5

>  <PUBCHEM_MOLECULAR_WEIGHT>  (1) 
409.5

>  <PUBCHEM_OPENEYE_CAN_SMILES>  (1) 
COC1=C(C=C2C(=C1)C3=C(C[N+]4(CCCC4C3)[O-])C5=CC(=C(C=C52)OC)OC)OC

>  <PUBCHEM_OPENEYE_ISO_SMILES>  (1) 
COC1=C(C=C2C(=C1)C3=C(C[N+]4(CCC[C@@H]4C3)[O-])C5=CC(=C(C=C52)OC)OC)OC

>  <PUBCHEM_CACTVS_TPSA>  (1) 
55

>  <PUBCHEM_MONOISOTOPIC_WEIGHT>  (1) 
409.18892296

>  <PUBCHEM_TOTAL_CHARGE>  (1) 
0

>  <PUBCHEM_HEAVY_ATOM_COUNT>  (1) 
30

>  <PUBCHEM_ATOM_DEF_STEREO_COUNT>  (1) 
1

>  <PUBCHEM_ATOM_UDEF_STEREO_COUNT>  (1) 
1

>  <PUBCHEM_BOND_DEF_STEREO_COUNT>  (1) 
0

>  <PUBCHEM_BOND_UDEF_STEREO_COUNT>  (1) 
0

>  <PUBCHEM_ISOTOPIC_ATOM_COUNT>  (1) 
0

>  <PUBCHEM_COMPONENT_COUNT>  (1) 
1

>  <PUBCHEM_CACTVS_TAUTO_COUNT>  (1) 
-1

>  <PUBCHEM_COORDINATE_TYPE>  (1) 
1
5
255

>  <PUBCHEM_BONDANNOTATIONS>  (1) 
6  1  3
13  14  8
13  15  8
14  16  8
15  17  8
15  19  8
16  18  8
16  20  8
17  18  8
17  21  8
18  22  8
19  23  8
20  24  8
21  25  8
22  26  8
23  25  8
24  26  8
7  31  5

$$$$
