54724003
     RDKit          2D

 21 22  0  0  1  0  0  0  0  0999 V2000
    3.0593   -1.9906    0.0000 O   0  0  0  0  0  0  0  0  0  0  0  0
    6.0916    1.6468    0.0000 O   0  0  0  0  0  0  0  0  0  0  0  0
    6.0916   -1.8173    0.0000 O   0  0  0  0  0  0  0  0  0  0  0  0
    8.0916   -1.8173    0.0000 O   0  0  0  0  0  0  0  0  0  0  0  0
    7.5916   -0.9513    0.0000 N   0  0  0  0  0  0  0  0  0  0  0  0
    4.6577   -0.9863    0.0000 C   0  0  0  0  0  0  0  0  0  0  0  0
    5.0916   -0.0853    0.0000 C   0  0  0  0  0  0  0  0  0  0  0  0
    3.6828   -1.2088    0.0000 C   0  0  0  0  0  0  0  0  0  0  0  0
    4.6577    0.8157    0.0000 C   0  0  0  0  0  0  0  0  0  0  0  0
    2.9010    0.4147    0.0000 C   0  0  0  0  0  0  0  0  0  0  0  0
    2.9010   -0.5853    0.0000 C   0  0  0  0  0  0  0  0  0  0  0  0
    3.6828    1.0382    0.0000 C   0  0  0  0  0  0  0  0  0  0  0  0
    5.2812   -1.7681    0.0000 C   0  0  0  0  0  0  0  0  0  0  0  0
    6.0916   -0.0853    0.0000 C   0  0  0  0  0  0  0  0  0  0  0  0
    3.9053   -2.1837    0.0000 C   0  0  0  0  0  0  0  0  0  0  0  0
    5.2812    1.5975    0.0000 C   0  0  0  0  0  0  0  0  0  0  0  0
    2.0000    0.8486    0.0000 C   0  0  0  0  0  0  0  0  0  0  0  0
    6.5916    0.7807    0.0000 C   0  0  0  0  0  0  0  0  0  0  0  0
    6.5916   -0.9513    0.0000 C   0  0  0  0  0  0  0  0  0  0  0  0
    7.5916    0.7807    0.0000 C   0  0  0  0  0  0  0  0  0  0  0  0
    8.0916   -0.0853    0.0000 C   0  0  0  0  0  0  0  0  0  0  0  0
  8  1  1  0
  2 18  1  0
  3 19  2  0
  4  5  1  0
  5 19  1  0
  5 21  1  0
  6  7  1  0
  6  8  1  0
  6 13  1  6
  7  9  1  0
  7 14  1  1
  8 11  1  0
  8 15  1  6
  9 12  1  0
  9 16  1  6
 10 11  1  0
 10 12  1  0
 10 17  1  6
 14 18  2  0
 14 19  1  0
 18 20  1  0
 20 21  2  0
M  END
>  <PUBCHEM_COMPOUND_CID>  (1) 
54724003

>  <PUBCHEM_COMPOUND_CANONICALIZED>  (1) 
1

>  <PUBCHEM_CACTVS_COMPLEXITY>  (1) 
499

>  <PUBCHEM_CACTVS_HBOND_ACCEPTOR>  (1) 
4

>  <PUBCHEM_CACTVS_HBOND_DONOR>  (1) 
3

>  <PUBCHEM_CACTVS_ROTATABLE_BOND>  (1) 
1

>  <PUBCHEM_CACTVS_SUBSKEYS>  (1) 
AAADceB6OAAAAAAAAAAAAAAAAAAAAAAAAAAgAAAABgAAAAAAAAAAHgAECAAADUTBgAQCAAIQAgCIAiFWUACAAAAgIgAoCAEIAEgIBBIAgAAEQAAEggAIkQOY3PLOgAAAAAAAAAAAAAAAAAAAAAAAAAAAAA==

>  <PUBCHEM_IUPAC_OPENEYE_NAME>  (1) 
1,4-dihydroxy-3-[(1R,2S,3S,5R,7S)-3-hydroxy-2,3,5,7-tetramethyl-cycloheptyl]pyridin-2-one

>  <PUBCHEM_IUPAC_CAS_NAME>  (1) 
1,4-dihydroxy-3-[(1R,2S,3S,5R,7S)-3-hydroxy-2,3,5,7-tetramethylcycloheptyl]-2-pyridinone

>  <PUBCHEM_IUPAC_NAME_MARKUP>  (1) 
1,4-dihydroxy-3-[(1<I>R</I>,2<I>S</I>,3<I>S</I>,5<I>R</I>,7<I>S</I>)-3-hydroxy-2,3,5,7-tetramethylcycloheptyl]pyridin-2-one

>  <PUBCHEM_IUPAC_NAME>  (1) 
1,4-dihydroxy-3-[(1R,2S,3S,5R,7S)-3-hydroxy-2,3,5,7-tetramethylcycloheptyl]pyridin-2-one

>  <PUBCHEM_IUPAC_SYSTEMATIC_NAME>  (1) 
1,4-bis(oxidanyl)-3-[(1R,2S,3S,5R,7S)-2,3,5,7-tetramethyl-3-oxidanyl-cycloheptyl]pyridin-2-one

>  <PUBCHEM_IUPAC_TRADITIONAL_NAME>  (1) 
1,4-dihydroxy-3-[(1R,2S,3S,5R,7S)-3-hydroxy-2,3,5,7-tetramethyl-cycloheptyl]-2-pyridone

>  <PUBCHEM_IUPAC_INCHI>  (1) 
InChI=1S/C16H25NO4/c1-9-7-10(2)13(11(3)16(4,20)8-9)14-12(18)5-6-17(21)15(14)19/h5-6,9-11,13,18,20-21H,7-8H2,1-4H3/t9-,10+,11+,13-,16+/m1/s1

>  <PUBCHEM_IUPAC_INCHIKEY>  (1) 
JVLHJPCKGYNVAQ-WFEKMPBRSA-N

>  <PUBCHEM_XLOGP3_AA>  (1) 
1.9

>  <PUBCHEM_EXACT_MASS>  (1) 
295.17835828

>  <PUBCHEM_MOLECULAR_FORMULA>  (1) 
C16H25NO4

>  <PUBCHEM_MOLECULAR_WEIGHT>  (1) 
295.37

>  <PUBCHEM_OPENEYE_CAN_SMILES>  (1) 
CC1CC(C(C(C(C1)(C)O)C)C2=C(C=CN(C2=O)O)O)C

>  <PUBCHEM_OPENEYE_ISO_SMILES>  (1) 
C[C@@H]1C[C@@H]([C@H]([C@@H]([C@@](C1)(C)O)C)C2=C(C=CN(C2=O)O)O)C

>  <PUBCHEM_CACTVS_TPSA>  (1) 
81

>  <PUBCHEM_MONOISOTOPIC_WEIGHT>  (1) 
295.17835828

>  <PUBCHEM_TOTAL_CHARGE>  (1) 
0

>  <PUBCHEM_HEAVY_ATOM_COUNT>  (1) 
21

>  <PUBCHEM_ATOM_DEF_STEREO_COUNT>  (1) 
5

>  <PUBCHEM_ATOM_UDEF_STEREO_COUNT>  (1) 
0

>  <PUBCHEM_BOND_DEF_STEREO_COUNT>  (1) 
0

>  <PUBCHEM_BOND_UDEF_STEREO_COUNT>  (1) 
0

>  <PUBCHEM_ISOTOPIC_ATOM_COUNT>  (1) 
0

>  <PUBCHEM_COMPONENT_COUNT>  (1) 
1

>  <PUBCHEM_CACTVS_TAUTO_COUNT>  (1) 
-1

>  <PUBCHEM_COORDINATE_TYPE>  (1) 
1
5
255

>  <PUBCHEM_BONDANNOTATIONS>  (1) 
8  1  5
10  17  6
14  18  8
14  19  8
18  20  8
20  21  8
5  19  8
5  21  8
6  13  6
7  23  6
9  16  6

$$$$
