Papyriflavonol A
  -OEChem-12162008123D

 58 60  0     0  0  0  0  0  0999 V2000
   -0.2471   -0.9569    0.4027 O   0  0  0  0  0  0  0  0  0  0  0  0
   -4.1397    1.8647   -0.1462 O   0  0  0  0  0  0  0  0  0  0  0  0
   -4.4219   -2.2695    2.2175 O   0  0  0  0  0  0  0  0  0  0  0  0
    0.8872    1.9661   -1.5358 O   0  0  0  0  0  0  0  0  0  0  0  0
   -1.8111    2.4889   -1.1090 O   0  0  0  0  0  0  0  0  0  0  0  0
    5.8935   -1.7090   -0.7839 O   0  0  0  0  0  0  0  0  0  0  0  0
    4.0295   -2.4461   -2.6896 O   0  0  0  0  0  0  0  0  0  0  0  0
   -2.1683    0.4950    0.0988 C   0  0  0  0  0  0  0  0  0  0  0  0
   -4.2861   -0.1904    1.0299 C   0  0  0  0  0  0  0  0  0  0  0  0
   -1.5739   -0.6661    0.5880 C   0  0  0  0  0  0  0  0  0  0  0  0
   -3.5267    0.7383    0.3173 C   0  0  0  0  0  0  0  0  0  0  0  0
    0.5381   -0.0499   -0.2915 C   0  0  0  0  0  0  0  0  0  0  0  0
    1.9407   -0.4838   -0.4195 C   0  0  0  0  0  0  0  0  0  0  0  0
   -5.7414    0.0572    1.2729 C   0  0  0  0  0  0  0  0  0  0  0  0
   -3.6919   -1.3540    1.5202 C   0  0  0  0  0  0  0  0  0  0  0  0
   -1.3435    1.4551   -0.6505 C   0  0  0  0  0  0  0  0  0  0  0  0
    4.2054   -0.5208    0.4230 C   0  0  0  0  0  0  0  0  0  0  0  0
   -2.3355   -1.5934    1.2996 C   0  0  0  0  0  0  0  0  0  0  0  0
    0.0862    1.1011   -0.8219 C   0  0  0  0  0  0  0  0  0  0  0  0
    2.8778   -0.1102    0.5443 C   0  0  0  0  0  0  0  0  0  0  0  0
    5.1936   -0.1112    1.4646 C   0  0  0  0  0  0  0  0  0  0  0  0
    2.3326   -1.2686   -1.5046 C   0  0  0  0  0  0  0  0  0  0  0  0
    4.5966   -1.3055   -0.6619 C   0  0  0  0  0  0  0  0  0  0  0  0
    3.6601   -1.6794   -1.6258 C   0  0  0  0  0  0  0  0  0  0  0  0
   -6.6191   -0.5033    0.1831 C   0  0  0  0  0  0  0  0  0  0  0  0
    5.8712    1.1989    1.1478 C   0  0  0  0  0  0  0  0  0  0  0  0
   -7.4525    0.1648   -0.6373 C   0  0  0  0  0  0  0  0  0  0  0  0
    7.1824    1.4271    0.9415 C   0  0  0  0  0  0  0  0  0  0  0  0
   -8.3024   -0.4599   -1.7072 C   0  0  0  0  0  0  0  0  0  0  0  0
   -7.6000    1.6587   -0.5211 C   0  0  0  0  0  0  0  0  0  0  0  0
    7.7918    2.7643    0.6286 C   0  0  0  0  0  0  0  0  0  0  0  0
    8.1746    0.2977    1.0260 C   0  0  0  0  0  0  0  0  0  0  0  0
   -6.0590   -0.3824    2.2272 H   0  0  0  0  0  0  0  0  0  0  0  0
   -5.8983    1.1225    1.4582 H   0  0  0  0  0  0  0  0  0  0  0  0
   -1.8742   -2.5006    1.6820 H   0  0  0  0  0  0  0  0  0  0  0  0
    2.5722    0.5031    1.3895 H   0  0  0  0  0  0  0  0  0  0  0  0
    4.6603    0.0352    2.4153 H   0  0  0  0  0  0  0  0  0  0  0  0
    5.8708   -0.9361    1.6955 H   0  0  0  0  0  0  0  0  0  0  0  0
    1.6086   -1.5651   -2.2606 H   0  0  0  0  0  0  0  0  0  0  0  0
   -6.5667   -1.5848    0.0605 H   0  0  0  0  0  0  0  0  0  0  0  0
    5.2017    2.0569    1.0880 H   0  0  0  0  0  0  0  0  0  0  0  0
   -3.5123    2.4292   -0.6219 H   0  0  0  0  0  0  0  0  0  0  0  0
   -5.3587   -2.2197    1.9721 H   0  0  0  0  0  0  0  0  0  0  0  0
    1.7928    1.6193   -1.5764 H   0  0  0  0  0  0  0  0  0  0  0  0
   -8.1726   -1.5466   -1.7410 H   0  0  0  0  0  0  0  0  0  0  0  0
   -9.3615   -0.2551   -1.5215 H   0  0  0  0  0  0  0  0  0  0  0  0
   -8.0345   -0.0604   -2.6905 H   0  0  0  0  0  0  0  0  0  0  0  0
   -6.8806    2.1628    0.1219 H   0  0  0  0  0  0  0  0  0  0  0  0
   -7.4890    2.1150   -1.5117 H   0  0  0  0  0  0  0  0  0  0  0  0
   -8.6021    1.9022   -0.1513 H   0  0  0  0  0  0  0  0  0  0  0  0
    6.4746   -1.1914   -0.2098 H   0  0  0  0  0  0  0  0  0  0  0  0
    7.0295    3.5474    0.5596 H   0  0  0  0  0  0  0  0  0  0  0  0
    8.5006    3.0554    1.4105 H   0  0  0  0  0  0  0  0  0  0  0  0
    8.3205    2.7272   -0.3292 H   0  0  0  0  0  0  0  0  0  0  0  0
    7.8252   -0.5920    1.5498 H   0  0  0  0  0  0  0  0  0  0  0  0
    8.4962    0.0068    0.0205 H   0  0  0  0  0  0  0  0  0  0  0  0
    9.0635    0.6296    1.5755 H   0  0  0  0  0  0  0  0  0  0  0  0
    4.9806   -2.6369   -2.6133 H   0  0  0  0  0  0  0  0  0  0  0  0
  1 10  1  0  0  0  0
  1 12  1  0  0  0  0
  2 11  1  0  0  0  0
  2 42  1  0  0  0  0
  3 15  1  0  0  0  0
  3 43  1  0  0  0  0
  4 19  1  0  0  0  0
  4 44  1  0  0  0  0
  5 16  2  0  0  0  0
  6 23  1  0  0  0  0
  6 51  1  0  0  0  0
  7 24  1  0  0  0  0
  7 58  1  0  0  0  0
  8 10  2  0  0  0  0
  8 11  1  0  0  0  0
  8 16  1  0  0  0  0
  9 11  2  0  0  0  0
  9 14  1  0  0  0  0
  9 15  1  0  0  0  0
 10 18  1  0  0  0  0
 12 13  1  0  0  0  0
 12 19  2  0  0  0  0
 13 20  2  0  0  0  0
 13 22  1  0  0  0  0
 14 25  1  0  0  0  0
 14 33  1  0  0  0  0
 14 34  1  0  0  0  0
 15 18  2  0  0  0  0
 16 19  1  0  0  0  0
 17 20  1  0  0  0  0
 17 21  1  0  0  0  0
 17 23  2  0  0  0  0
 18 35  1  0  0  0  0
 20 36  1  0  0  0  0
 21 26  1  0  0  0  0
 21 37  1  0  0  0  0
 21 38  1  0  0  0  0
 22 24  2  0  0  0  0
 22 39  1  0  0  0  0
 23 24  1  0  0  0  0
 25 27  2  0  0  0  0
 25 40  1  0  0  0  0
 26 28  2  0  0  0  0
 26 41  1  0  0  0  0
 27 29  1  0  0  0  0
 27 30  1  0  0  0  0
 28 31  1  0  0  0  0
 28 32  1  0  0  0  0
 29 45  1  0  0  0  0
 29 46  1  0  0  0  0
 29 47  1  0  0  0  0
 30 48  1  0  0  0  0
 30 49  1  0  0  0  0
 30 50  1  0  0  0  0
 31 52  1  0  0  0  0
 31 53  1  0  0  0  0
 31 54  1  0  0  0  0
 32 55  1  0  0  0  0
 32 56  1  0  0  0  0
 32 57  1  0  0  0  0
M  END
> <PUBCHEM_COMPOUND_CID>
10343070

> <PUBCHEM_CONFORMER_RMSD>
0.8

> <PUBCHEM_CONFORMER_DIVERSEORDER>
1
123
16
54
34
39
43
97
33
41
4
98
50
80
2
68
84
117
103
6
82
55
35
87
18
79
114
3
93
115
112
111
15
65
63
74
64
44
21
19
20
118
77
53
47
72
40
86
61
102
66
88
76
13
32
81
11
67
31
60
62
12
94
10
121
45
120
116
107
27
28
58
109
124
75
59
30
89
108
5
26
126
110
96
92
8
42
9
113
106
71
37
78
57
46
104
48
95
105
23
17
101
70
51
38
52
100
83
49
56
119
122
125
90
99
36
25
91
24
7
69
29
73
85
14
22

> <PUBCHEM_MMFF94_PARTIAL_CHARGES>
42
1 -0.16
10 0.08
11 0.08
12 0.05
13 0.03
14 0.28
15 0.08
16 0.47
17 -0.14
18 -0.15
19 0.09
2 -0.53
20 -0.15
21 0.28
22 -0.15
23 0.08
24 0.08
25 -0.29
26 -0.29
27 -0.28
28 -0.28
29 0.14
3 -0.53
30 0.14
31 0.14
32 0.14
35 0.15
36 0.15
39 0.15
4 -0.53
40 0.15
41 0.15
42 0.45
43 0.45
44 0.45
5 -0.57
51 0.45
58 0.45
6 -0.53
7 -0.53
8 0.09
9 -0.14

> <PUBCHEM_EFFECTIVE_ROTOR_COUNT>
5

> <PUBCHEM_PHARMACOPHORE_FEATURES>
12
1 1 acceptor
1 2 donor
1 3 donor
1 4 donor
1 5 acceptor
1 6 donor
1 7 donor
3 27 29 30 hydrophobe
3 28 31 32 hydrophobe
6 1 8 10 12 16 19 rings
6 13 17 20 22 23 24 rings
6 8 9 10 11 15 18 rings

> <PUBCHEM_HEAVY_ATOM_COUNT>
32

> <PUBCHEM_ATOM_DEF_STEREO_COUNT>
0

> <PUBCHEM_ATOM_UDEF_STEREO_COUNT>
0

> <PUBCHEM_BOND_DEF_STEREO_COUNT>
0

> <PUBCHEM_BOND_UDEF_STEREO_COUNT>
0

> <PUBCHEM_ISOTOPIC_ATOM_COUNT>
0

> <PUBCHEM_COMPONENT_COUNT>
1

> <PUBCHEM_CACTVS_TAUTO_COUNT>
876

> <PUBCHEM_CONFORMER_ID>
009DD29E00000001

> <PUBCHEM_MMFF94_ENERGY>
88.3355

> <PUBCHEM_FEATURE_SELFOVERLAP>
60.93

> <PUBCHEM_SHAPE_FINGERPRINT>
10 15 18409164437906087424
10165383 225 17846495968315236048
10369192 42 18200877396411153724
10591671 39 13326856638768023467
11456790 92 12829202261299091836
12120059 9 18187077365182324203
12236239 1 15267064709902265499
12596602 18 16200154253656577063
12838862 33 17749656459622427307
13782708 43 18057616377628489287
13811026 1 18408603656035340025
13914758 101 14273451449322766415
14251752 14 15864069858724919415
14394314 77 17458620129469889361
15183329 4 17458349611613867143
15328829 1 15554158255249949841
15461852 350 18201716301748562903
15728490 51 17703502298736255903
1577012 14 15338848538308622555
18335252 98 17704070720546772127
20737093 133 17466795200994022140
21033648 29 18342185427055842514
21150785 3 14908183070708058128
21792934 111 17822006501893950580
21792938 169 17631441294890642406
21859007 373 17531232955853576141
22224240 67 18273209820456815850
23559900 14 18187937226488193845
24771293 8 18410012122221135229
3004659 81 17095817567634559838
335352 9 17894918425958200743
3383291 50 18187657925013141627
38570 142 15626233442064167900
3882209 13 17546441640796614370
4073 2 18202285826870484519
4258327 124 17632293544380144628
44880568 143 18200314308538997221
4625314 4 18272087223490561222
504579 68 16128372692428326860
5104073 3 18336548197382135896
57527293 21 18339913892854239422
59755656 215 18114748136132562219
6004065 56 18271242820172324685
6126387 218 14923935761157006604
6523845 18 10735882789302476327

> <PUBCHEM_SHAPE_MULTIPOLES>
617.46
23.73
2.28
1.78
0.73
0.36
0.19
6.46
-2.02
-2.35
0.65
0.3
-0.88
3.38

> <PUBCHEM_SHAPE_SELFOVERLAP>
1334.315

> <PUBCHEM_SHAPE_VOLUME>
338.6

> <PUBCHEM_COORDINATE_TYPE>
2
5
10

$$$$
