SA29_0005
  -OEChem-07172407372D

 39 41  0     1  0  0  0  0  0999 V2000
    6.3981    0.0427    0.0000 O   0  0  0  0  0  0  0  0  0  0  0  0
    7.2641   -1.4573    0.0000 O   0  0  0  0  0  0  0  0  0  0  0  0
    2.8680    0.0185    0.0000 O   0  0  0  0  0  0  0  0  0  0  0  0
   10.7282   -1.4573    0.0000 O   0  0  0  0  0  0  0  0  0  0  0  0
    7.2641    0.5427    0.0000 C   0  0  3  0  0  0  0  0  0  0  0  0
    7.2641    1.5427    0.0000 C   0  0  0  0  0  0  0  0  0  0  0  0
    6.3981    2.0427    0.0000 C   0  0  0  0  0  0  0  0  0  0  0  0
    5.5320    1.5427    0.0000 C   0  0  0  0  0  0  0  0  0  0  0  0
    8.1301    0.0427    0.0000 C   0  0  0  0  0  0  0  0  0  0  0  0
    5.5320    0.5427    0.0000 C   0  0  0  0  0  0  0  0  0  0  0  0
    4.6381    2.0773    0.0000 C   0  0  0  0  0  0  0  0  0  0  0  0
    4.6381    0.0080    0.0000 C   0  0  0  0  0  0  0  0  0  0  0  0
    8.1301   -0.9573    0.0000 C   0  0  0  0  0  0  0  0  0  0  0  0
    8.9962    0.5427    0.0000 C   0  0  0  0  0  0  0  0  0  0  0  0
    3.7320    0.5219    0.0000 C   0  0  0  0  0  0  0  0  0  0  0  0
    3.7320    1.5635    0.0000 C   0  0  0  0  0  0  0  0  0  0  0  0
    8.9962   -1.4573    0.0000 C   0  0  0  0  0  0  0  0  0  0  0  0
    9.8622    0.0427    0.0000 C   0  0  0  0  0  0  0  0  0  0  0  0
    9.8622   -0.9573    0.0000 C   0  0  0  0  0  0  0  0  0  0  0  0
    2.0000    0.5152    0.0000 C   0  0  0  0  0  0  0  0  0  0  0  0
   11.5942   -0.9573    0.0000 C   0  0  0  0  0  0  0  0  0  0  0  0
    7.2641   -0.0773    0.0000 H   0  0  0  0  0  0  0  0  0  0  0  0
    7.8747    1.4350    0.0000 H   0  0  0  0  0  0  0  0  0  0  0  0
    7.4762    2.1253    0.0000 H   0  0  0  0  0  0  0  0  0  0  0  0
    6.7966    2.5176    0.0000 H   0  0  0  0  0  0  0  0  0  0  0  0
    5.9995    2.5176    0.0000 H   0  0  0  0  0  0  0  0  0  0  0  0
    4.6453    2.6973    0.0000 H   0  0  0  0  0  0  0  0  0  0  0  0
    4.6453   -0.6120    0.0000 H   0  0  0  0  0  0  0  0  0  0  0  0
    8.9962    1.1627    0.0000 H   0  0  0  0  0  0  0  0  0  0  0  0
    3.1963    1.8756    0.0000 H   0  0  0  0  0  0  0  0  0  0  0  0
    8.9962   -2.0773    0.0000 H   0  0  0  0  0  0  0  0  0  0  0  0
   10.3991    0.3527    0.0000 H   0  0  0  0  0  0  0  0  0  0  0  0
    7.2641   -2.0773    0.0000 H   0  0  0  0  0  0  0  0  0  0  0  0
    2.3079    1.0533    0.0000 H   0  0  0  0  0  0  0  0  0  0  0  0
    1.4619    0.8231    0.0000 H   0  0  0  0  0  0  0  0  0  0  0  0
    1.6921   -0.0229    0.0000 H   0  0  0  0  0  0  0  0  0  0  0  0
   11.9042   -1.4943    0.0000 H   0  0  0  0  0  0  0  0  0  0  0  0
   12.1312   -0.6473    0.0000 H   0  0  0  0  0  0  0  0  0  0  0  0
   11.2842   -0.4204    0.0000 H   0  0  0  0  0  0  0  0  0  0  0  0
  1  5  1  0  0  0  0
  1 10  1  0  0  0  0
  2 13  1  0  0  0  0
  2 33  1  0  0  0  0
  3 15  1  0  0  0  0
  3 20  1  0  0  0  0
  4 19  1  0  0  0  0
  4 21  1  0  0  0  0
  5  6  1  0  0  0  0
  5  9  1  0  0  0  0
  5 22  1  0  0  0  0
  6  7  1  0  0  0  0
  6 23  1  0  0  0  0
  6 24  1  0  0  0  0
  7  8  1  0  0  0  0
  7 25  1  0  0  0  0
  7 26  1  0  0  0  0
  8 10  2  0  0  0  0
  8 11  1  0  0  0  0
  9 13  2  0  0  0  0
  9 14  1  0  0  0  0
 10 12  1  0  0  0  0
 11 16  2  0  0  0  0
 11 27  1  0  0  0  0
 12 15  2  0  0  0  0
 12 28  1  0  0  0  0
 13 17  1  0  0  0  0
 14 18  2  0  0  0  0
 14 29  1  0  0  0  0
 15 16  1  0  0  0  0
 16 30  1  0  0  0  0
 17 19  2  0  0  0  0
 17 31  1  0  0  0  0
 18 19  1  0  0  0  0
 18 32  1  0  0  0  0
 20 34  1  0  0  0  0
 20 35  1  0  0  0  0
 20 36  1  0  0  0  0
 21 37  1  0  0  0  0
 21 38  1  0  0  0  0
 21 39  1  0  0  0  0
M  END
> <PUBCHEM_COMPOUND_CID>
91895463

> <PUBCHEM_COMPOUND_CANONICALIZED>
1

> <PUBCHEM_CACTVS_COMPLEXITY>
335

> <PUBCHEM_CACTVS_HBOND_ACCEPTOR>
4

> <PUBCHEM_CACTVS_HBOND_DONOR>
1

> <PUBCHEM_CACTVS_ROTATABLE_BOND>
3

> <PUBCHEM_CACTVS_SUBSKEYS>
AAADceB4OAAAAAAAAAAAAAAAAAAAAAAAAAA0YIAAAAAAAACRQAAAGgAACAAADBSgmAIyBoAABgCAAiBCAAACCAAgIAAIiAAGCIgMJyKGMRqCeCClwBUIuAeA4OwOIAAACAAIAABAAAAQABAAAAAAAAAAAA==

> <PUBCHEM_IUPAC_OPENEYE_NAME>
5-methoxy-2-(7-methoxychroman-2-yl)phenol

> <PUBCHEM_IUPAC_CAS_NAME>
5-methoxy-2-(7-methoxy-3,4-dihydro-2H-1-benzopyran-2-yl)phenol

> <PUBCHEM_IUPAC_NAME_MARKUP>
5-methoxy-2-(7-methoxy-3,4-dihydro-2<I>H</I>-chromen-2-yl)phenol

> <PUBCHEM_IUPAC_NAME>
5-methoxy-2-(7-methoxy-3,4-dihydro-2H-chromen-2-yl)phenol

> <PUBCHEM_IUPAC_SYSTEMATIC_NAME>
5-methoxy-2-(7-methoxy-3,4-dihydro-2H-chromen-2-yl)phenol

> <PUBCHEM_IUPAC_TRADITIONAL_NAME>
5-methoxy-2-(7-methoxychroman-2-yl)phenol

> <PUBCHEM_IUPAC_INCHI>
InChI=1S/C17H18O4/c1-19-12-6-7-14(15(18)9-12)16-8-4-11-3-5-13(20-2)10-17(11)21-16/h3,5-7,9-10,16,18H,4,8H2,1-2H3

> <PUBCHEM_IUPAC_INCHIKEY>
GAZKXWKUWYJZTM-UHFFFAOYSA-N

> <PUBCHEM_XLOGP3_AA>
3.4

> <PUBCHEM_EXACT_MASS>
286.12050905

> <PUBCHEM_MOLECULAR_FORMULA>
C17H18O4

> <PUBCHEM_MOLECULAR_WEIGHT>
286.32

> <PUBCHEM_OPENEYE_CAN_SMILES>
COC1=CC(=C(C=C1)C2CCC3=C(O2)C=C(C=C3)OC)O

> <PUBCHEM_OPENEYE_ISO_SMILES>
COC1=CC(=C(C=C1)C2CCC3=C(O2)C=C(C=C3)OC)O

> <PUBCHEM_CACTVS_TPSA>
47.9

> <PUBCHEM_MONOISOTOPIC_WEIGHT>
286.12050905

> <PUBCHEM_TOTAL_CHARGE>
0

> <PUBCHEM_HEAVY_ATOM_COUNT>
21

> <PUBCHEM_ATOM_DEF_STEREO_COUNT>
0

> <PUBCHEM_ATOM_UDEF_STEREO_COUNT>
1

> <PUBCHEM_BOND_DEF_STEREO_COUNT>
0

> <PUBCHEM_BOND_UDEF_STEREO_COUNT>
0

> <PUBCHEM_ISOTOPIC_ATOM_COUNT>
0

> <PUBCHEM_COMPONENT_COUNT>
1

> <PUBCHEM_CACTVS_TAUTO_COUNT>
-1

> <PUBCHEM_COORDINATE_TYPE>
1
5
255

> <PUBCHEM_BONDANNOTATIONS>
10  12  8
11  16  8
12  15  8
13  17  8
14  18  8
15  16  8
17  19  8
18  19  8
5  9  3
8  10  8
8  11  8
9  13  8
9  14  8

$$$$
