442027
     RDKit          2D

 21 23  0  0  1  0  0  0  0  0999 V2000
    5.5442    2.5839    0.0000 O   0  0  0  0  0  0  0  0  0  0  0  0
    3.8000   -1.4854    0.0000 C   0  0  0  0  0  0  0  0  0  0  0  0
    3.8000   -0.4854    0.0000 C   0  0  0  0  0  0  0  0  0  0  0  0
    2.9061   -2.0200    0.0000 C   0  0  0  0  0  0  0  0  0  0  0  0
    2.9061    0.0493    0.0000 C   0  0  0  0  0  0  0  0  0  0  0  0
    2.0000   -1.5062    0.0000 C   0  0  0  0  0  0  0  0  0  0  0  0
    4.6660   -1.9854    0.0000 C   0  0  0  0  0  0  0  0  0  0  0  0
    2.0000   -0.4646    0.0000 C   0  0  0  0  0  0  0  0  0  0  0  0
    4.6660    0.0146    0.0000 C   0  0  0  0  0  0  0  0  0  0  0  0
    5.5321   -1.4854    0.0000 C   0  0  0  0  0  0  0  0  0  0  0  0
    3.8000    0.5146    0.0000 C   0  0  0  0  0  0  0  0  0  0  0  0
    5.5321   -0.4854    0.0000 C   0  0  0  0  0  0  0  0  0  0  0  0
    2.4161   -2.8918    0.0000 C   0  0  0  0  0  0  0  0  0  0  0  0
    3.4160   -2.8802    0.0000 C   0  0  0  0  0  0  0  0  0  0  0  0
    4.6500    1.0561    0.0000 C   0  0  0  0  0  0  0  0  0  0  0  0
    6.4421    0.0215    0.0000 C   0  0  0  0  0  0  0  0  0  0  0  0
    6.4501    1.0631    0.0000 C   0  0  0  0  0  0  0  0  0  0  0  0
    5.5480    1.5839    0.0000 C   0  0  0  0  0  0  0  0  0  0  0  0
    7.3180    1.5597    0.0000 C   0  0  0  0  0  0  0  0  0  0  0  0
    8.1821    1.0564    0.0000 C   0  0  0  0  0  0  0  0  0  0  0  0
    7.3219    2.5597    0.0000 C   0  0  0  0  0  0  0  0  0  0  0  0
  1 18  1  0
  2  3  1  0
  2  4  1  0
  2  7  1  1
  3  5  1  0
  3  9  1  0
  3 11  1  1
  4  6  1  0
  4 13  1  0
  4 14  1  0
  5  8  1  0
  6  8  1  0
  7 10  1  0
  9 12  2  0
  9 15  1  0
 10 12  1  0
 12 16  1  0
 15 18  2  0
 16 17  2  0
 17 18  1  0
 17 19  1  0
 19 20  1  0
 19 21  1  0
M  END
>  <PUBCHEM_COMPOUND_CID>  (1) 
442027

>  <PUBCHEM_COMPOUND_CANONICALIZED>  (1) 
1

>  <PUBCHEM_CACTVS_COMPLEXITY>  (1) 
385

>  <PUBCHEM_CACTVS_HBOND_ACCEPTOR>  (1) 
1

>  <PUBCHEM_CACTVS_HBOND_DONOR>  (1) 
1

>  <PUBCHEM_CACTVS_ROTATABLE_BOND>  (1) 
1

>  <PUBCHEM_CACTVS_SUBSKEYS>  (1) 
AAADceB4IAAAAAAAAAAAAAAAAAAAAAAAAAAwYMAAAAAAAADBAAAAGgAACAAADwSAmAAyBoAAAgCAAiBCAAACAAAgIAAAiAAGCIgIJiKCERKAcAAkwBEImAeAwPAP4AADAAAYAADAAAYAADAAAAAAAAAAAA==

>  <PUBCHEM_IUPAC_OPENEYE_NAME>  (1) 
(4bS,8aS)-2-isopropyl-4b,8,8-trimethyl-5,6,7,8a,9,10-hexahydrophenanthren-3-ol

>  <PUBCHEM_IUPAC_CAS_NAME>  (1) 
(4bS,8aS)-4b,8,8-trimethyl-2-propan-2-yl-5,6,7,8a,9,10-hexahydrophenanthren-3-ol

>  <PUBCHEM_IUPAC_NAME_MARKUP>  (1) 
(4<I>b</I><I>S</I>,8<I>a</I><I>S</I>)-4<I>b</I>,8,8-trimethyl-2-propan-2-yl-5,6,7,8<I>a</I>,9,10-hexahydrophenanthren-3-ol

>  <PUBCHEM_IUPAC_NAME>  (1) 
(4bS,8aS)-4b,8,8-trimethyl-2-propan-2-yl-5,6,7,8a,9,10-hexahydrophenanthren-3-ol

>  <PUBCHEM_IUPAC_SYSTEMATIC_NAME>  (1) 
(4bS,8aS)-4b,8,8-trimethyl-2-propan-2-yl-5,6,7,8a,9,10-hexahydrophenanthren-3-ol

>  <PUBCHEM_IUPAC_TRADITIONAL_NAME>  (1) 
(4bS,8aS)-2-isopropyl-4b,8,8-trimethyl-5,6,7,8a,9,10-hexahydrophenanthren-3-ol

>  <PUBCHEM_IUPAC_INCHI>  (1) 
InChI=1S/C20H30O/c1-13(2)15-11-14-7-8-18-19(3,4)9-6-10-20(18,5)16(14)12-17(15)21/h11-13,18,21H,6-10H2,1-5H3/t18-,20+/m0/s1

>  <PUBCHEM_IUPAC_INCHIKEY>  (1) 
QXNWVJOHUAQHLM-AZUAARDMSA-N

>  <PUBCHEM_XLOGP3_AA>  (1) 
6.7

>  <PUBCHEM_EXACT_MASS>  (1) 
286.229665576

>  <PUBCHEM_MOLECULAR_FORMULA>  (1) 
C20H30O

>  <PUBCHEM_MOLECULAR_WEIGHT>  (1) 
286.5

>  <PUBCHEM_OPENEYE_CAN_SMILES>  (1) 
CC(C)C1=C(C=C2C(=C1)CCC3C2(CCCC3(C)C)C)O

>  <PUBCHEM_OPENEYE_ISO_SMILES>  (1) 
CC(C)C1=C(C=C2C(=C1)CC[C@@H]3[C@@]2(CCCC3(C)C)C)O

>  <PUBCHEM_CACTVS_TPSA>  (1) 
20.2

>  <PUBCHEM_MONOISOTOPIC_WEIGHT>  (1) 
286.229665576

>  <PUBCHEM_TOTAL_CHARGE>  (1) 
0

>  <PUBCHEM_HEAVY_ATOM_COUNT>  (1) 
21

>  <PUBCHEM_ATOM_DEF_STEREO_COUNT>  (1) 
2

>  <PUBCHEM_ATOM_UDEF_STEREO_COUNT>  (1) 
0

>  <PUBCHEM_BOND_DEF_STEREO_COUNT>  (1) 
0

>  <PUBCHEM_BOND_UDEF_STEREO_COUNT>  (1) 
0

>  <PUBCHEM_ISOTOPIC_ATOM_COUNT>  (1) 
0

>  <PUBCHEM_COMPONENT_COUNT>  (1) 
1

>  <PUBCHEM_CACTVS_TAUTO_COUNT>  (1) 
-1

>  <PUBCHEM_COORDINATE_TYPE>  (1) 
1
5
255

>  <PUBCHEM_BONDANNOTATIONS>  (1) 
12  16  8
15  18  8
16  17  8
17  18  8
2  22  6
3  11  5
9  12  8
9  15  8

$$$$
