24011643
     RDKit          2D

 33 35  0  0  1  0  0  0  0  0999 V2000
    6.0010    2.8450    0.0000 O   0  0  0  0  0  0  0  0  0  0  0  0
    5.1350    1.3450    0.0000 O   0  0  0  0  0  0  0  0  0  0  0  0
    4.2690    3.8450    0.0000 O   0  0  0  0  0  0  0  0  0  0  0  0
    2.5369    2.8450    0.0000 O   0  0  0  0  0  0  0  0  0  0  0  0
    2.5369    0.8450    0.0000 O   0  0  0  0  0  0  0  0  0  0  0  0
   12.0632    2.3450    0.0000 O   0  0  0  0  0  0  0  0  0  0  0  0
   12.0632    4.3450    0.0000 O   0  0  0  0  0  0  0  0  0  0  0  0
    6.8671   -3.6550    0.0000 O   0  0  0  0  0  0  0  0  0  0  0  0
    8.5991   -4.6550    0.0000 O   0  0  0  0  0  0  0  0  0  0  0  0
    4.2690    2.8450    0.0000 C   0  0  0  0  0  0  0  0  0  0  0  0
    5.1350    2.3450    0.0000 C   0  0  0  0  0  0  0  0  0  0  0  0
    6.8671    2.3450    0.0000 C   0  0  0  0  0  0  0  0  0  0  0  0
    3.4030    2.3450    0.0000 C   0  0  0  0  0  0  0  0  0  0  0  0
    3.4030    1.3450    0.0000 C   0  0  0  0  0  0  0  0  0  0  0  0
    6.8671    1.3450    0.0000 C   0  0  0  0  0  0  0  0  0  0  0  0
    7.7331    2.8450    0.0000 C   0  0  0  0  0  0  0  0  0  0  0  0
    4.2690    0.8450    0.0000 C   0  0  0  0  0  0  0  0  0  0  0  0
    7.7331    0.8450    0.0000 C   0  0  0  0  0  0  0  0  0  0  0  0
    8.5991    2.3450    0.0000 C   0  0  0  0  0  0  0  0  0  0  0  0
    7.7331   -0.1550    0.0000 C   0  0  0  0  0  0  0  0  0  0  0  0
    8.5991   -0.6550    0.0000 C   0  0  0  0  0  0  0  0  0  0  0  0
    9.4651    2.8450    0.0000 C   0  0  0  0  0  0  0  0  0  0  0  0
    8.5991   -1.6550    0.0000 C   0  0  0  0  0  0  0  0  0  0  0  0
   10.3312    2.3450    0.0000 C   0  0  0  0  0  0  0  0  0  0  0  0
    9.4651    3.8450    0.0000 C   0  0  0  0  0  0  0  0  0  0  0  0
    7.7331   -2.1550    0.0000 C   0  0  0  0  0  0  0  0  0  0  0  0
    9.4651   -2.1550    0.0000 C   0  0  0  0  0  0  0  0  0  0  0  0
   11.1972    2.8450    0.0000 C   0  0  0  0  0  0  0  0  0  0  0  0
   10.3312    4.3450    0.0000 C   0  0  0  0  0  0  0  0  0  0  0  0
   11.1972    3.8450    0.0000 C   0  0  0  0  0  0  0  0  0  0  0  0
    7.7331   -3.1550    0.0000 C   0  0  0  0  0  0  0  0  0  0  0  0
    9.4651   -3.1550    0.0000 C   0  0  0  0  0  0  0  0  0  0  0  0
    8.5991   -3.6550    0.0000 C   0  0  0  0  0  0  0  0  0  0  0  0
 11  1  1  6
 12  1  1  0
  2 11  1  0
  2 17  1  0
 10  3  1  1
 13  4  1  6
 14  5  1  1
  6 28  1  0
  7 30  1  0
  8 31  1  0
  9 33  1  0
 10 11  1  0
 10 13  1  0
 12 15  1  1
 12 16  1  0
 13 14  1  0
 14 17  1  0
 15 18  1  0
 16 19  1  0
 18 20  1  0
 19 22  1  0
 20 21  1  0
 21 23  1  0
 22 24  2  0
 22 25  1  0
 23 26  2  0
 23 27  1  0
 24 28  1  0
 25 29  2  0
 26 31  1  0
 27 32  2  0
 28 30  2  0
 29 30  1  0
 31 33  2  0
 32 33  1  0
M  END
>  <PUBCHEM_COMPOUND_CID>  (1) 
24011643

>  <PUBCHEM_COMPOUND_CANONICALIZED>  (1) 
1

>  <PUBCHEM_CACTVS_COMPLEXITY>  (1) 
564

>  <PUBCHEM_CACTVS_HBOND_ACCEPTOR>  (1) 
9

>  <PUBCHEM_CACTVS_HBOND_DONOR>  (1) 
7

>  <PUBCHEM_CACTVS_ROTATABLE_BOND>  (1) 
10

>  <PUBCHEM_CACTVS_SUBSKEYS>  (1) 
AAADcfB4PAAAAAAAAAAAAAAAAAAAAAAAAAA0YIAAAAAAAAABQAAAGgAACAAADBSwmAMwDoAABgCAAiBCAAACAAAgIAAIiAAGiIgZNiKCERKicAElwBEPmAfA4PgOIAABAAAAQABAAAIAAACAAAAAAAAAAA==

>  <PUBCHEM_IUPAC_OPENEYE_NAME>  (1) 
(2S,3R,4S,5R)-2-[(1R)-5-(3,4-dihydroxyphenyl)-1-[2-(3,4-dihydroxyphenyl)ethyl]pentoxy]tetrahydropyran-3,4,5-triol

>  <PUBCHEM_IUPAC_CAS_NAME>  (1) 
(2S,3R,4S,5R)-2-[(3R)-1,7-bis(3,4-dihydroxyphenyl)heptan-3-yl]oxyoxane-3,4,5-triol

>  <PUBCHEM_IUPAC_NAME_MARKUP>  (1) 
(2<I>S</I>,3<I>R</I>,4<I>S</I>,5<I>R</I>)-2-[(3<I>R</I>)-1,7-bis(3,4-dihydroxyphenyl)heptan-3-yl]oxyoxane-3,4,5-triol

>  <PUBCHEM_IUPAC_NAME>  (1) 
(2S,3R,4S,5R)-2-[(3R)-1,7-bis(3,4-dihydroxyphenyl)heptan-3-yl]oxyoxane-3,4,5-triol

>  <PUBCHEM_IUPAC_SYSTEMATIC_NAME>  (1) 
(2S,3R,4S,5R)-2-[(3R)-1,7-bis[3,4-bis(oxidanyl)phenyl]heptan-3-yl]oxyoxane-3,4,5-triol

>  <PUBCHEM_IUPAC_TRADITIONAL_NAME>  (1) 
(2S,3R,4S,5R)-2-[(1R)-5-(3,4-dihydroxyphenyl)-1-[2-(3,4-dihydroxyphenyl)ethyl]pentoxy]tetrahydropyran-3,4,5-triol

>  <PUBCHEM_IUPAC_INCHI>  (1) 
InChI=1S/C24H32O9/c25-17-9-6-14(11-19(17)27)3-1-2-4-16(8-5-15-7-10-18(26)20(28)12-15)33-24-23(31)22(30)21(29)13-32-24/h6-7,9-12,16,21-31H,1-5,8,13H2/t16-,21-,22+,23-,24+/m1/s1

>  <PUBCHEM_IUPAC_INCHIKEY>  (1) 
PVCSOVFCVIEUFH-IGCYBFCNSA-N

>  <PUBCHEM_XLOGP3_AA>  (1) 
2.2

>  <PUBCHEM_EXACT_MASS>  (1) 
464.20463259

>  <PUBCHEM_MOLECULAR_FORMULA>  (1) 
C24H32O9

>  <PUBCHEM_MOLECULAR_WEIGHT>  (1) 
464.5

>  <PUBCHEM_OPENEYE_CAN_SMILES>  (1) 
C1C(C(C(C(O1)OC(CCCCC2=CC(=C(C=C2)O)O)CCC3=CC(=C(C=C3)O)O)O)O)O

>  <PUBCHEM_OPENEYE_ISO_SMILES>  (1) 
C1[C@H]([C@@H]([C@H]([C@@H](O1)O[C@H](CCCCC2=CC(=C(C=C2)O)O)CCC3=CC(=C(C=C3)O)O)O)O)O

>  <PUBCHEM_CACTVS_TPSA>  (1) 
160

>  <PUBCHEM_MONOISOTOPIC_WEIGHT>  (1) 
464.20463259

>  <PUBCHEM_TOTAL_CHARGE>  (1) 
0

>  <PUBCHEM_HEAVY_ATOM_COUNT>  (1) 
33

>  <PUBCHEM_ATOM_DEF_STEREO_COUNT>  (1) 
5

>  <PUBCHEM_ATOM_UDEF_STEREO_COUNT>  (1) 
0

>  <PUBCHEM_BOND_DEF_STEREO_COUNT>  (1) 
0

>  <PUBCHEM_BOND_UDEF_STEREO_COUNT>  (1) 
0

>  <PUBCHEM_ISOTOPIC_ATOM_COUNT>  (1) 
0

>  <PUBCHEM_COMPONENT_COUNT>  (1) 
1

>  <PUBCHEM_CACTVS_TAUTO_COUNT>  (1) 
-1

>  <PUBCHEM_COORDINATE_TYPE>  (1) 
1
5
255

>  <PUBCHEM_BONDANNOTATIONS>  (1) 
11  1  6
12  1  5
22  24  8
22  25  8
23  26  8
23  27  8
24  28  8
25  29  8
26  31  8
27  32  8
28  30  8
29  30  8
10  3  5
31  33  8
32  33  8
13  4  6
14  5  5

$$$$
