5321824
     RDKit          2D

 24 25  0  0  0  0  0  0  0  0999 V2000
    2.8660   -4.7500    0.0000 O   0  0  0  0  0  0  0  0  0  0  0  0
    8.0622    1.2500    0.0000 O   0  0  0  0  0  0  0  0  0  0  0  0
    4.5981   -5.7500    0.0000 O   0  0  0  0  0  0  0  0  0  0  0  0
    7.1962    5.7500    0.0000 O   0  0  0  0  0  0  0  0  0  0  0  0
    4.5981    0.2500    0.0000 O   0  0  0  0  0  0  0  0  0  0  0  0
    6.3301    0.2500    0.0000 N   0  0  0  0  0  0  0  0  0  0  0  0
    6.3301    1.2500    0.0000 C   0  0  0  0  0  0  0  0  0  0  0  0
    7.1962    2.7500    0.0000 C   0  0  0  0  0  0  0  0  0  0  0  0
    4.5981   -2.7500    0.0000 C   0  0  0  0  0  0  0  0  0  0  0  0
    7.1962    1.7500    0.0000 C   0  0  0  0  0  0  0  0  0  0  0  0
    3.7320   -3.2500    0.0000 C   0  0  0  0  0  0  0  0  0  0  0  0
    3.7320   -4.2500    0.0000 C   0  0  0  0  0  0  0  0  0  0  0  0
    5.4641   -3.2500    0.0000 C   0  0  0  0  0  0  0  0  0  0  0  0
    8.0622    3.2500    0.0000 C   0  0  0  0  0  0  0  0  0  0  0  0
    6.3301    3.2500    0.0000 C   0  0  0  0  0  0  0  0  0  0  0  0
    4.5981   -1.7500    0.0000 C   0  0  0  0  0  0  0  0  0  0  0  0
    4.5981   -4.7500    0.0000 C   0  0  0  0  0  0  0  0  0  0  0  0
    5.4641   -4.2500    0.0000 C   0  0  0  0  0  0  0  0  0  0  0  0
    5.4641   -0.2500    0.0000 C   0  0  0  0  0  0  0  0  0  0  0  0
    5.4641   -1.2500    0.0000 C   0  0  0  0  0  0  0  0  0  0  0  0
    8.0622    4.2500    0.0000 C   0  0  0  0  0  0  0  0  0  0  0  0
    6.3301    4.2500    0.0000 C   0  0  0  0  0  0  0  0  0  0  0  0
    7.1962    4.7500    0.0000 C   0  0  0  0  0  0  0  0  0  0  0  0
    2.0000   -4.2500    0.0000 C   0  0  0  0  0  0  0  0  0  0  0  0
  1 12  1  0
  1 24  1  0
  2 10  2  0
  3 17  1  0
  4 23  1  0
  5 19  2  0
  6  7  1  0
  6 19  1  0
  7 10  1  0
  8 10  1  0
  8 14  2  0
  8 15  1  0
  9 11  2  0
  9 13  1  0
  9 16  1  0
 11 12  1  0
 12 17  2  0
 13 18  2  0
 14 21  1  0
 15 22  2  0
 16 20  2  0
 17 18  1  0
 19 20  1  0
 21 23  2  0
 22 23  1  0
M  END
>  <PUBCHEM_COMPOUND_CID>  (1) 
5321824

>  <PUBCHEM_COMPOUND_CANONICALIZED>  (1) 
1

>  <PUBCHEM_CACTVS_COMPLEXITY>  (1) 
456

>  <PUBCHEM_CACTVS_HBOND_ACCEPTOR>  (1) 
5

>  <PUBCHEM_CACTVS_HBOND_DONOR>  (1) 
3

>  <PUBCHEM_CACTVS_ROTATABLE_BOND>  (1) 
6

>  <PUBCHEM_CACTVS_SUBSKEYS>  (1) 
AAADceB6OAAAAAAAAAAAAAAAAAAAAAAAAAAwYAAAAAAAAAABQAAAHgAQCAAADATBmAYyBoLABgCIAqFSEACCCAAkIAAIiIGOiMgNJjKGtTuEcSMk1hGLuYeYzJDOIAABAAAAQABAAAIAAACAAAAAAAAAAA==

>  <PUBCHEM_IUPAC_OPENEYE_NAME>  (1) 
(E)-3-(4-hydroxy-3-methoxy-phenyl)-N-[2-(4-hydroxyphenyl)-2-oxo-ethyl]prop-2-enamide

>  <PUBCHEM_IUPAC_CAS_NAME>  (1) 
(E)-3-(4-hydroxy-3-methoxyphenyl)-N-[2-(4-hydroxyphenyl)-2-oxoethyl]-2-propenamide

>  <PUBCHEM_IUPAC_NAME_MARKUP>  (1) 
(<I>E</I>)-3-(4-hydroxy-3-methoxyphenyl)-<I>N</I>-[2-(4-hydroxyphenyl)-2-oxoethyl]prop-2-enamide

>  <PUBCHEM_IUPAC_NAME>  (1) 
(E)-3-(4-hydroxy-3-methoxyphenyl)-N-[2-(4-hydroxyphenyl)-2-oxoethyl]prop-2-enamide

>  <PUBCHEM_IUPAC_SYSTEMATIC_NAME>  (1) 
(E)-N-[2-(4-hydroxyphenyl)-2-oxidanylidene-ethyl]-3-(3-methoxy-4-oxidanyl-phenyl)prop-2-enamide

>  <PUBCHEM_IUPAC_TRADITIONAL_NAME>  (1) 
(E)-3-(4-hydroxy-3-methoxy-phenyl)-N-[2-(4-hydroxyphenyl)-2-keto-ethyl]acrylamide

>  <PUBCHEM_IUPAC_INCHI>  (1) 
InChI=1S/C18H17NO5/c1-24-17-10-12(2-8-15(17)21)3-9-18(23)19-11-16(22)13-4-6-14(20)7-5-13/h2-10,20-21H,11H2,1H3,(H,19,23)/b9-3+

>  <PUBCHEM_IUPAC_INCHIKEY>  (1) 
QIPDEXHJCVHMKQ-YCRREMRBSA-N

>  <PUBCHEM_XLOGP3>  (1) 
2.3

>  <PUBCHEM_EXACT_MASS>  (1) 
327.11067264

>  <PUBCHEM_MOLECULAR_FORMULA>  (1) 
C18H17NO5

>  <PUBCHEM_MOLECULAR_WEIGHT>  (1) 
327.3

>  <PUBCHEM_OPENEYE_CAN_SMILES>  (1) 
COC1=C(C=CC(=C1)C=CC(=O)NCC(=O)C2=CC=C(C=C2)O)O

>  <PUBCHEM_OPENEYE_ISO_SMILES>  (1) 
COC1=C(C=CC(=C1)/C=C/C(=O)NCC(=O)C2=CC=C(C=C2)O)O

>  <PUBCHEM_CACTVS_TPSA>  (1) 
95.9

>  <PUBCHEM_MONOISOTOPIC_WEIGHT>  (1) 
327.11067264

>  <PUBCHEM_TOTAL_CHARGE>  (1) 
0

>  <PUBCHEM_HEAVY_ATOM_COUNT>  (1) 
24

>  <PUBCHEM_ATOM_DEF_STEREO_COUNT>  (1) 
0

>  <PUBCHEM_ATOM_UDEF_STEREO_COUNT>  (1) 
0

>  <PUBCHEM_BOND_DEF_STEREO_COUNT>  (1) 
1

>  <PUBCHEM_BOND_UDEF_STEREO_COUNT>  (1) 
0

>  <PUBCHEM_ISOTOPIC_ATOM_COUNT>  (1) 
0

>  <PUBCHEM_COMPONENT_COUNT>  (1) 
1

>  <PUBCHEM_CACTVS_TAUTO_COUNT>  (1) 
-1

>  <PUBCHEM_COORDINATE_TYPE>  (1) 
1
5
255

>  <PUBCHEM_BONDANNOTATIONS>  (1) 
11  12  8
12  17  8
13  18  8
14  21  8
15  22  8
17  18  8
21  23  8
22  23  8
8  14  8
8  15  8
9  11  8
9  13  8

$$$$
