42607985
     RDKit          2D

 32 34  0  0  1  0  0  0  0  0999 V2000
   11.5542   -0.2699    0.0000 O   0  0  0  0  0  0  0  0  0  0  0  0
    9.7942    2.7648    0.0000 O   0  0  0  0  0  0  0  0  0  0  0  0
   11.5426    2.7994    0.0000 O   0  0  0  0  0  0  0  0  0  0  0  0
    8.0622   -0.2352    0.0000 O   0  0  0  0  0  0  0  0  0  0  0  0
   15.9166   -1.7694    0.0000 O   0  0  0  0  0  0  0  0  0  0  0  0
   14.1807   -2.7627    0.0000 O   0  0  0  0  0  0  0  0  0  0  0  0
   12.4603    0.2440    0.0000 C   0  0  0  0  0  0  0  0  0  0  0  0
   12.4603    1.2856    0.0000 C   0  0  0  0  0  0  0  0  0  0  0  0
   10.6603    1.2648    0.0000 C   0  0  0  0  0  0  0  0  0  0  0  0
   10.6603    0.2648    0.0000 C   0  0  0  0  0  0  0  0  0  0  0  0
   11.5542    1.7994    0.0000 C   0  0  0  0  0  0  0  0  0  0  0  0
   13.3244   -0.2594    0.0000 C   0  0  0  0  0  0  0  0  0  0  0  0
    8.9282    1.2648    0.0000 C   0  0  0  0  0  0  0  0  0  0  0  0
    9.7942    1.7648    0.0000 C   0  0  0  0  0  0  0  0  0  0  0  0
    8.0622    1.7648    0.0000 C   0  0  0  0  0  0  0  0  0  0  0  0
    9.7942   -0.2352    0.0000 C   0  0  0  0  0  0  0  0  0  0  0  0
    8.9282    0.2648    0.0000 C   0  0  0  0  0  0  0  0  0  0  0  0
   13.3205   -1.2594    0.0000 C   0  0  0  0  0  0  0  0  0  0  0  0
   14.1923    0.2373    0.0000 C   0  0  0  0  0  0  0  0  0  0  0  0
    7.1962    1.2648    0.0000 C   0  0  0  0  0  0  0  0  0  0  0  0
    6.3301    1.7648    0.0000 C   0  0  0  0  0  0  0  0  0  0  0  0
    5.4641    1.2648    0.0000 C   0  0  0  0  0  0  0  0  0  0  0  0
   14.1846   -1.7627    0.0000 C   0  0  0  0  0  0  0  0  0  0  0  0
   15.0564   -0.2661    0.0000 C   0  0  0  0  0  0  0  0  0  0  0  0
    4.5981    1.7648    0.0000 C   0  0  0  0  0  0  0  0  0  0  0  0
   15.0525   -1.2660    0.0000 C   0  0  0  0  0  0  0  0  0  0  0  0
    6.3301    2.7648    0.0000 C   0  0  0  0  0  0  0  0  0  0  0  0
    3.7320    1.2648    0.0000 C   0  0  0  0  0  0  0  0  0  0  0  0
    2.8660    1.7648    0.0000 C   0  0  0  0  0  0  0  0  0  0  0  0
    2.0000    1.2648    0.0000 C   0  0  0  0  0  0  0  0  0  0  0  0
    2.8660    2.7648    0.0000 C   0  0  0  0  0  0  0  0  0  0  0  0
   16.7846   -1.2727    0.0000 C   0  0  0  0  0  0  0  0  0  0  0  0
  1  7  1  0
  1 10  1  0
  2 14  1  0
  3 11  2  0
  4 17  1  0
  5 26  1  0
  5 32  1  0
  6 23  1  0
  7  8  1  0
  7 12  1  0
  8 11  1  0
  9 10  2  0
  9 11  1  0
  9 14  1  0
 10 16  1  0
 12 18  2  0
 12 19  1  0
 13 14  2  0
 13 15  1  0
 13 17  1  0
 15 20  1  0
 16 17  2  0
 18 23  1  0
 19 24  2  0
 20 21  2  0
 21 22  1  0
 21 27  1  0
 22 25  1  0
 23 26  2  0
 24 26  1  0
 25 28  1  0
 28 29  2  0
 29 30  1  0
 29 31  1  0
M  END
>  <PUBCHEM_COMPOUND_CID>  (1) 
42607985

>  <PUBCHEM_COMPOUND_CANONICALIZED>  (1) 
1

>  <PUBCHEM_CACTVS_COMPLEXITY>  (1) 
696

>  <PUBCHEM_CACTVS_HBOND_ACCEPTOR>  (1) 
6

>  <PUBCHEM_CACTVS_HBOND_DONOR>  (1) 
3

>  <PUBCHEM_CACTVS_ROTATABLE_BOND>  (1) 
7

>  <PUBCHEM_CACTVS_SUBSKEYS>  (1) 
AAADceB4OAAAAAAAAAAAAAAAAAAAAAAAAAA0YIAAAAAAAACRQAAAGgAACAAADBSgmAIyBoAABgCIAqBSAAACCAAkIAAIiAEGiMgNJzaGNRqCeWOl4BULuQfI7PzOIAADCAAIQABAAAYQABCAAAAAAAAAAA==

>  <PUBCHEM_IUPAC_OPENEYE_NAME>  (1) 
6-[(2E)-3,7-dimethylocta-2,6-dienyl]-5,7-dihydroxy-2-(3-hydroxy-4-methoxy-phenyl)chroman-4-one

>  <PUBCHEM_IUPAC_CAS_NAME>  (1) 
6-[(2E)-3,7-dimethylocta-2,6-dienyl]-5,7-dihydroxy-2-(3-hydroxy-4-methoxyphenyl)-3,4-dihydro-2H-1-benzopyran-4-one

>  <PUBCHEM_IUPAC_NAME_MARKUP>  (1) 
6-[(2<I>E</I>)-3,7-dimethylocta-2,6-dienyl]-5,7-dihydroxy-2-(3-hydroxy-4-methoxyphenyl)-2,3-dihydrochromen-4-one

>  <PUBCHEM_IUPAC_NAME>  (1) 
6-[(2E)-3,7-dimethylocta-2,6-dienyl]-5,7-dihydroxy-2-(3-hydroxy-4-methoxyphenyl)-2,3-dihydrochromen-4-one

>  <PUBCHEM_IUPAC_SYSTEMATIC_NAME>  (1) 
6-[(2E)-3,7-dimethylocta-2,6-dienyl]-2-(4-methoxy-3-oxidanyl-phenyl)-5,7-bis(oxidanyl)-2,3-dihydrochromen-4-one

>  <PUBCHEM_IUPAC_TRADITIONAL_NAME>  (1) 
6-[(2E)-3,7-dimethylocta-2,6-dienyl]-5,7-dihydroxy-2-(3-hydroxy-4-methoxy-phenyl)chroman-4-one

>  <PUBCHEM_IUPAC_INCHI>  (1) 
InChI=1S/C26H30O6/c1-15(2)6-5-7-16(3)8-10-18-19(27)13-24-25(26(18)30)21(29)14-23(32-24)17-9-11-22(31-4)20(28)12-17/h6,8-9,11-13,23,27-28,30H,5,7,10,14H2,1-4H3/b16-8+

>  <PUBCHEM_IUPAC_INCHIKEY>  (1) 
FVUVHWPNLPHERN-LZYBPNLTSA-N

>  <PUBCHEM_XLOGP3_AA>  (1) 
6.1

>  <PUBCHEM_EXACT_MASS>  (1) 
438.20423867

>  <PUBCHEM_MOLECULAR_FORMULA>  (1) 
C26H30O6

>  <PUBCHEM_MOLECULAR_WEIGHT>  (1) 
438.5

>  <PUBCHEM_OPENEYE_CAN_SMILES>  (1) 
CC(=CCCC(=CCC1=C(C2=C(C=C1O)OC(CC2=O)C3=CC(=C(C=C3)OC)O)O)C)C

>  <PUBCHEM_OPENEYE_ISO_SMILES>  (1) 
CC(=CCC/C(=C/CC1=C(C2=C(C=C1O)OC(CC2=O)C3=CC(=C(C=C3)OC)O)O)/C)C

>  <PUBCHEM_CACTVS_TPSA>  (1) 
96.2

>  <PUBCHEM_MONOISOTOPIC_WEIGHT>  (1) 
438.20423867

>  <PUBCHEM_TOTAL_CHARGE>  (1) 
0

>  <PUBCHEM_HEAVY_ATOM_COUNT>  (1) 
32

>  <PUBCHEM_ATOM_DEF_STEREO_COUNT>  (1) 
0

>  <PUBCHEM_ATOM_UDEF_STEREO_COUNT>  (1) 
1

>  <PUBCHEM_BOND_DEF_STEREO_COUNT>  (1) 
1

>  <PUBCHEM_BOND_UDEF_STEREO_COUNT>  (1) 
0

>  <PUBCHEM_ISOTOPIC_ATOM_COUNT>  (1) 
0

>  <PUBCHEM_COMPONENT_COUNT>  (1) 
1

>  <PUBCHEM_CACTVS_TAUTO_COUNT>  (1) 
-1

>  <PUBCHEM_COORDINATE_TYPE>  (1) 
1
5
255

>  <PUBCHEM_BONDANNOTATIONS>  (1) 
10  16  8
12  18  8
12  19  8
13  14  8
13  17  8
16  17  8
18  23  8
19  24  8
23  26  8
24  26  8
7  12  3
9  10  8
9  14  8

$$$$
