14539948
     RDKit          2D

 31 33  0  0  1  0  0  0  0  0999 V2000
   11.5542   -0.2699    0.0000 O   0  0  0  0  0  0  0  0  0  0  0  0
    9.7942    2.7648    0.0000 O   0  0  0  0  0  0  0  0  0  0  0  0
   11.5426    2.7994    0.0000 O   0  0  0  0  0  0  0  0  0  0  0  0
    8.0622   -0.2352    0.0000 O   0  0  0  0  0  0  0  0  0  0  0  0
   14.1807   -2.7627    0.0000 O   0  0  0  0  0  0  0  0  0  0  0  0
   15.9166   -1.7694    0.0000 O   0  0  0  0  0  0  0  0  0  0  0  0
   12.4603    0.2440    0.0000 C   0  0  0  0  0  0  0  0  0  0  0  0
   12.4603    1.2856    0.0000 C   0  0  0  0  0  0  0  0  0  0  0  0
   10.6603    1.2648    0.0000 C   0  0  0  0  0  0  0  0  0  0  0  0
   10.6603    0.2648    0.0000 C   0  0  0  0  0  0  0  0  0  0  0  0
   11.5542    1.7994    0.0000 C   0  0  0  0  0  0  0  0  0  0  0  0
   13.3244   -0.2594    0.0000 C   0  0  0  0  0  0  0  0  0  0  0  0
    8.9282    1.2648    0.0000 C   0  0  0  0  0  0  0  0  0  0  0  0
    9.7942    1.7648    0.0000 C   0  0  0  0  0  0  0  0  0  0  0  0
    8.0622    1.7648    0.0000 C   0  0  0  0  0  0  0  0  0  0  0  0
    9.7942   -0.2352    0.0000 C   0  0  0  0  0  0  0  0  0  0  0  0
    8.9282    0.2648    0.0000 C   0  0  0  0  0  0  0  0  0  0  0  0
    7.1962    1.2648    0.0000 C   0  0  0  0  0  0  0  0  0  0  0  0
   13.3205   -1.2594    0.0000 C   0  0  0  0  0  0  0  0  0  0  0  0
   14.1923    0.2373    0.0000 C   0  0  0  0  0  0  0  0  0  0  0  0
    6.3301    1.7648    0.0000 C   0  0  0  0  0  0  0  0  0  0  0  0
    5.4641    1.2648    0.0000 C   0  0  0  0  0  0  0  0  0  0  0  0
    4.5981    1.7648    0.0000 C   0  0  0  0  0  0  0  0  0  0  0  0
   14.1846   -1.7627    0.0000 C   0  0  0  0  0  0  0  0  0  0  0  0
   15.0564   -0.2661    0.0000 C   0  0  0  0  0  0  0  0  0  0  0  0
   15.0525   -1.2660    0.0000 C   0  0  0  0  0  0  0  0  0  0  0  0
    6.3301    2.7648    0.0000 C   0  0  0  0  0  0  0  0  0  0  0  0
    3.7320    1.2648    0.0000 C   0  0  0  0  0  0  0  0  0  0  0  0
    2.8660    1.7648    0.0000 C   0  0  0  0  0  0  0  0  0  0  0  0
    2.0000    1.2648    0.0000 C   0  0  0  0  0  0  0  0  0  0  0  0
    2.8660    2.7648    0.0000 C   0  0  0  0  0  0  0  0  0  0  0  0
  1  7  1  0
  1 10  1  0
  2 14  1  0
  3 11  2  0
  4 17  1  0
  5 24  1  0
  6 26  1  0
  7  8  1  0
  7 12  1  0
  8 11  1  0
  9 10  2  0
  9 11  1  0
  9 14  1  0
 10 16  1  0
 12 19  2  0
 12 20  1  0
 13 14  2  0
 13 15  1  0
 13 17  1  0
 15 18  1  0
 16 17  2  0
 18 21  2  0
 19 24  1  0
 20 25  2  0
 21 22  1  0
 21 27  1  0
 22 23  1  0
 23 28  1  0
 24 26  2  0
 25 26  1  0
 28 29  2  0
 29 30  1  0
 29 31  1  0
M  END
>  <PUBCHEM_COMPOUND_CID>  (1) 
14539948

>  <PUBCHEM_COMPOUND_CANONICALIZED>  (1) 
1

>  <PUBCHEM_CACTVS_COMPLEXITY>  (1) 
682

>  <PUBCHEM_CACTVS_HBOND_ACCEPTOR>  (1) 
6

>  <PUBCHEM_CACTVS_HBOND_DONOR>  (1) 
4

>  <PUBCHEM_CACTVS_ROTATABLE_BOND>  (1) 
6

>  <PUBCHEM_CACTVS_SUBSKEYS>  (1) 
AAADceB4OAAAAAAAAAAAAAAAAAAAAAAAAAA0YIAAAAAAAACRQAAAGgAACAAADBSgmAIyBoAABgCIAqBSAAACCAAkIAAIiAEGiMgNJzaGNRqCeWGl4BUJuQfI7PzOIAADCAAIQABAAAYQABCAAAAAAAAAAA==

>  <PUBCHEM_IUPAC_OPENEYE_NAME>  (1) 
2-(3,4-dihydroxyphenyl)-6-[(2E)-3,7-dimethylocta-2,6-dienyl]-5,7-dihydroxy-chroman-4-one

>  <PUBCHEM_IUPAC_CAS_NAME>  (1) 
2-(3,4-dihydroxyphenyl)-6-[(2E)-3,7-dimethylocta-2,6-dienyl]-5,7-dihydroxy-3,4-dihydro-2H-1-benzopyran-4-one

>  <PUBCHEM_IUPAC_NAME_MARKUP>  (1) 
2-(3,4-dihydroxyphenyl)-6-[(2<I>E</I>)-3,7-dimethylocta-2,6-dienyl]-5,7-dihydroxy-2,3-dihydrochromen-4-one

>  <PUBCHEM_IUPAC_NAME>  (1) 
2-(3,4-dihydroxyphenyl)-6-[(2E)-3,7-dimethylocta-2,6-dienyl]-5,7-dihydroxy-2,3-dihydrochromen-4-one

>  <PUBCHEM_IUPAC_SYSTEMATIC_NAME>  (1) 
2-[3,4-bis(oxidanyl)phenyl]-6-[(2E)-3,7-dimethylocta-2,6-dienyl]-5,7-bis(oxidanyl)-2,3-dihydrochromen-4-one

>  <PUBCHEM_IUPAC_TRADITIONAL_NAME>  (1) 
2-(3,4-dihydroxyphenyl)-6-[(2E)-3,7-dimethylocta-2,6-dienyl]-5,7-dihydroxy-chroman-4-one

>  <PUBCHEM_IUPAC_INCHI>  (1) 
InChI=1S/C25H28O6/c1-14(2)5-4-6-15(3)7-9-17-19(27)12-23-24(25(17)30)21(29)13-22(31-23)16-8-10-18(26)20(28)11-16/h5,7-8,10-12,22,26-28,30H,4,6,9,13H2,1-3H3/b15-7+

>  <PUBCHEM_IUPAC_INCHIKEY>  (1) 
XCYSQFHYFNWYFP-VIZOYTHASA-N

>  <PUBCHEM_XLOGP3_AA>  (1) 
5.8

>  <PUBCHEM_EXACT_MASS>  (1) 
424.18858861

>  <PUBCHEM_MOLECULAR_FORMULA>  (1) 
C25H28O6

>  <PUBCHEM_MOLECULAR_WEIGHT>  (1) 
424.5

>  <PUBCHEM_OPENEYE_CAN_SMILES>  (1) 
CC(=CCCC(=CCC1=C(C2=C(C=C1O)OC(CC2=O)C3=CC(=C(C=C3)O)O)O)C)C

>  <PUBCHEM_OPENEYE_ISO_SMILES>  (1) 
CC(=CCC/C(=C/CC1=C(C2=C(C=C1O)OC(CC2=O)C3=CC(=C(C=C3)O)O)O)/C)C

>  <PUBCHEM_CACTVS_TPSA>  (1) 
107

>  <PUBCHEM_MONOISOTOPIC_WEIGHT>  (1) 
424.18858861

>  <PUBCHEM_TOTAL_CHARGE>  (1) 
0

>  <PUBCHEM_HEAVY_ATOM_COUNT>  (1) 
31

>  <PUBCHEM_ATOM_DEF_STEREO_COUNT>  (1) 
0

>  <PUBCHEM_ATOM_UDEF_STEREO_COUNT>  (1) 
1

>  <PUBCHEM_BOND_DEF_STEREO_COUNT>  (1) 
1

>  <PUBCHEM_BOND_UDEF_STEREO_COUNT>  (1) 
0

>  <PUBCHEM_ISOTOPIC_ATOM_COUNT>  (1) 
0

>  <PUBCHEM_COMPONENT_COUNT>  (1) 
1

>  <PUBCHEM_CACTVS_TAUTO_COUNT>  (1) 
-1

>  <PUBCHEM_COORDINATE_TYPE>  (1) 
1
5
255

>  <PUBCHEM_BONDANNOTATIONS>  (1) 
10  16  8
12  19  8
12  20  8
13  14  8
13  17  8
16  17  8
19  24  8
20  25  8
24  26  8
25  26  8
7  12  3
9  10  8
9  14  8

$$$$
