102335850
     RDKit          2D

 25 26  0  0  1  0  0  0  0  0999 V2000
    5.4641    1.7500    0.0000 O   0  0  0  0  0  0  0  0  0  0  0  0
    2.8660   -4.7500    0.0000 O   0  0  0  0  0  0  0  0  0  0  0  0
    8.0622    1.2500    0.0000 O   0  0  0  0  0  0  0  0  0  0  0  0
    4.5981   -5.7500    0.0000 O   0  0  0  0  0  0  0  0  0  0  0  0
    7.1962    5.7500    0.0000 O   0  0  0  0  0  0  0  0  0  0  0  0
    4.5981    0.2500    0.0000 O   0  0  0  0  0  0  0  0  0  0  0  0
    6.3301    0.2500    0.0000 N   0  0  0  0  0  0  0  0  0  0  0  0
    6.3301    1.2500    0.0000 C   0  0  0  0  0  0  0  0  0  0  0  0
    7.1962    2.7500    0.0000 C   0  0  0  0  0  0  0  0  0  0  0  0
    7.1962    1.7500    0.0000 C   0  0  0  0  0  0  0  0  0  0  0  0
    4.5981   -2.7500    0.0000 C   0  0  0  0  0  0  0  0  0  0  0  0
    6.3301    3.2500    0.0000 C   0  0  0  0  0  0  0  0  0  0  0  0
    8.0622    3.2500    0.0000 C   0  0  0  0  0  0  0  0  0  0  0  0
    3.7320   -3.2500    0.0000 C   0  0  0  0  0  0  0  0  0  0  0  0
    3.7320   -4.2500    0.0000 C   0  0  0  0  0  0  0  0  0  0  0  0
    4.5981   -1.7500    0.0000 C   0  0  0  0  0  0  0  0  0  0  0  0
    5.4641   -3.2500    0.0000 C   0  0  0  0  0  0  0  0  0  0  0  0
    5.4641   -0.2500    0.0000 C   0  0  0  0  0  0  0  0  0  0  0  0
    4.5981   -4.7500    0.0000 C   0  0  0  0  0  0  0  0  0  0  0  0
    5.4641   -1.2500    0.0000 C   0  0  0  0  0  0  0  0  0  0  0  0
    6.3301    4.2500    0.0000 C   0  0  0  0  0  0  0  0  0  0  0  0
    8.0622    4.2500    0.0000 C   0  0  0  0  0  0  0  0  0  0  0  0
    5.4641   -4.2500    0.0000 C   0  0  0  0  0  0  0  0  0  0  0  0
    7.1962    4.7500    0.0000 C   0  0  0  0  0  0  0  0  0  0  0  0
    2.0000   -4.2500    0.0000 C   0  0  0  0  0  0  0  0  0  0  0  0
  1  8  1  0
  2 15  1  0
  2 25  1  0
  3 10  2  0
  4 19  1  0
  5 24  1  0
  6 18  2  0
  7  8  1  0
  7 18  1  0
  8 10  1  0
  9 10  1  0
  9 12  2  0
  9 13  1  0
 11 14  2  0
 11 16  1  0
 11 17  1  0
 12 21  1  0
 13 22  2  0
 14 15  1  0
 15 19  2  0
 16 20  2  0
 17 23  2  0
 18 20  1  0
 19 23  1  0
 21 24  2  0
 22 24  1  0
M  END
>  <PUBCHEM_COMPOUND_CID>  (1) 
102335850

>  <PUBCHEM_COMPOUND_CANONICALIZED>  (1) 
1

>  <PUBCHEM_CACTVS_COMPLEXITY>  (1) 
486

>  <PUBCHEM_CACTVS_HBOND_ACCEPTOR>  (1) 
6

>  <PUBCHEM_CACTVS_HBOND_DONOR>  (1) 
4

>  <PUBCHEM_CACTVS_ROTATABLE_BOND>  (1) 
6

>  <PUBCHEM_CACTVS_SUBSKEYS>  (1) 
AAADceB6OAAAAAAAAAAAAAAAAAAAAAAAAAAwYAAAAAAAAAABQAAAHgAQCAAADAThmAYyBoLABgCIAqFSEAKCCAAkIAAIiIHOiMkNNjKGtTuEcSMk1hGLuYeYzLDOIAABAAAAQABAAAIAAACAAAAAAAAAAA==

>  <PUBCHEM_IUPAC_OPENEYE_NAME>  (1) 
(E)-N-[1-hydroxy-2-(4-hydroxyphenyl)-2-oxo-ethyl]-3-(4-hydroxy-3-methoxy-phenyl)prop-2-enamide

>  <PUBCHEM_IUPAC_CAS_NAME>  (1) 
(E)-N-[1-hydroxy-2-(4-hydroxyphenyl)-2-oxoethyl]-3-(4-hydroxy-3-methoxyphenyl)-2-propenamide

>  <PUBCHEM_IUPAC_NAME_MARKUP>  (1) 
(<I>E</I>)-<I>N</I>-[1-hydroxy-2-(4-hydroxyphenyl)-2-oxoethyl]-3-(4-hydroxy-3-methoxyphenyl)prop-2-enamide

>  <PUBCHEM_IUPAC_NAME>  (1) 
(E)-N-[1-hydroxy-2-(4-hydroxyphenyl)-2-oxoethyl]-3-(4-hydroxy-3-methoxyphenyl)prop-2-enamide

>  <PUBCHEM_IUPAC_SYSTEMATIC_NAME>  (1) 
(E)-N-[2-(4-hydroxyphenyl)-1-oxidanyl-2-oxidanylidene-ethyl]-3-(3-methoxy-4-oxidanyl-phenyl)prop-2-enamide

>  <PUBCHEM_IUPAC_TRADITIONAL_NAME>  (1) 
(E)-N-[1-hydroxy-2-(4-hydroxyphenyl)-2-keto-ethyl]-3-(4-hydroxy-3-methoxy-phenyl)acrylamide

>  <PUBCHEM_IUPAC_INCHI>  (1) 
InChI=1S/C18H17NO6/c1-25-15-10-11(2-8-14(15)21)3-9-16(22)19-18(24)17(23)12-4-6-13(20)7-5-12/h2-10,18,20-21,24H,1H3,(H,19,22)/b9-3+

>  <PUBCHEM_IUPAC_INCHIKEY>  (1) 
QDAQTXSEIPFKEE-YCRREMRBSA-N

>  <PUBCHEM_XLOGP3>  (1) 
1.8

>  <PUBCHEM_EXACT_MASS>  (1) 
343.10558726

>  <PUBCHEM_MOLECULAR_FORMULA>  (1) 
C18H17NO6

>  <PUBCHEM_MOLECULAR_WEIGHT>  (1) 
343.3

>  <PUBCHEM_OPENEYE_CAN_SMILES>  (1) 
COC1=C(C=CC(=C1)C=CC(=O)NC(C(=O)C2=CC=C(C=C2)O)O)O

>  <PUBCHEM_OPENEYE_ISO_SMILES>  (1) 
COC1=C(C=CC(=C1)/C=C/C(=O)NC(C(=O)C2=CC=C(C=C2)O)O)O

>  <PUBCHEM_CACTVS_TPSA>  (1) 
116

>  <PUBCHEM_MONOISOTOPIC_WEIGHT>  (1) 
343.10558726

>  <PUBCHEM_TOTAL_CHARGE>  (1) 
0

>  <PUBCHEM_HEAVY_ATOM_COUNT>  (1) 
25

>  <PUBCHEM_ATOM_DEF_STEREO_COUNT>  (1) 
0

>  <PUBCHEM_ATOM_UDEF_STEREO_COUNT>  (1) 
1

>  <PUBCHEM_BOND_DEF_STEREO_COUNT>  (1) 
1

>  <PUBCHEM_BOND_UDEF_STEREO_COUNT>  (1) 
0

>  <PUBCHEM_ISOTOPIC_ATOM_COUNT>  (1) 
0

>  <PUBCHEM_COMPONENT_COUNT>  (1) 
1

>  <PUBCHEM_CACTVS_TAUTO_COUNT>  (1) 
-1

>  <PUBCHEM_COORDINATE_TYPE>  (1) 
1
5
255

>  <PUBCHEM_BONDANNOTATIONS>  (1) 
8  1  3
11  14  8
11  17  8
12  21  8
13  22  8
14  15  8
15  19  8
17  23  8
19  23  8
21  24  8
22  24  8
9  12  8
9  13  8

$$$$
