5282150
     RDKit          2D

 41 45  0  0  1  0  0  0  0  0999 V2000
    6.8671   -3.6796    0.0000 O   0  0  0  0  0  0  0  0  0  0  0  0
    5.1350   -1.6796    0.0000 O   0  0  0  0  0  0  0  0  0  0  0  0
    7.7331   -2.1796    0.0000 O   0  0  0  0  0  0  0  0  0  0  0  0
    5.1350   -4.6796    0.0000 O   0  0  0  0  0  0  0  0  0  0  0  0
    6.8671   -1.6796    0.0000 O   0  0  0  0  0  0  0  0  0  0  0  0
    3.4030   -3.6796    0.0000 O   0  0  0  0  0  0  0  0  0  0  0  0
    8.5991   -4.6796    0.0000 O   0  0  0  0  0  0  0  0  0  0  0  0
   10.3312   -3.6796    0.0000 O   0  0  0  0  0  0  0  0  0  0  0  0
   10.3312   -1.6796    0.0000 O   0  0  0  0  0  0  0  0  0  0  0  0
    2.5369   -2.1796    0.0000 O   0  0  0  0  0  0  0  0  0  0  0  0
    8.6230    1.3829    0.0000 O   0  0  0  0  0  0  0  0  0  0  0  0
    5.1208    1.3996    0.0000 O   0  0  0  0  0  0  0  0  0  0  0  0
    6.0308    2.8930    0.0000 O   0  0  0  0  0  0  0  0  0  0  0  0
   12.0987    4.3696    0.0000 O   0  0  0  0  0  0  0  0  0  0  0  0
    6.0010   -3.1796    0.0000 C   0  0  0  0  0  0  0  0  0  0  0  0
    5.1350   -3.6796    0.0000 C   0  0  0  0  0  0  0  0  0  0  0  0
    4.2690   -3.1796    0.0000 C   0  0  0  0  0  0  0  0  0  0  0  0
    7.7331   -3.1796    0.0000 C   0  0  0  0  0  0  0  0  0  0  0  0
    8.5991   -3.6796    0.0000 C   0  0  0  0  0  0  0  0  0  0  0  0
    6.0010   -2.1796    0.0000 C   0  0  0  0  0  0  0  0  0  0  0  0
    4.2690   -2.1796    0.0000 C   0  0  0  0  0  0  0  0  0  0  0  0
    9.4651   -3.1796    0.0000 C   0  0  0  0  0  0  0  0  0  0  0  0
    9.4651   -2.1796    0.0000 C   0  0  0  0  0  0  0  0  0  0  0  0
    8.5991   -1.6796    0.0000 C   0  0  0  0  0  0  0  0  0  0  0  0
    3.4030   -1.6796    0.0000 C   0  0  0  0  0  0  0  0  0  0  0  0
    8.5991   -0.6796    0.0000 C   0  0  0  0  0  0  0  0  0  0  0  0
    6.8671   -0.6796    0.0000 C   0  0  0  0  0  0  0  0  0  0  0  0
    7.7671   -0.1553    0.0000 C   0  0  0  0  0  0  0  0  0  0  0  0
    5.9670   -0.1553    0.0000 C   0  0  0  0  0  0  0  0  0  0  0  0
    7.7551    0.8863    0.0000 C   0  0  0  0  0  0  0  0  0  0  0  0
    5.9790    0.8863    0.0000 C   0  0  0  0  0  0  0  0  0  0  0  0
    6.8910    1.3896    0.0000 C   0  0  0  0  0  0  0  0  0  0  0  0
    6.8948    2.3896    0.0000 C   0  0  0  0  0  0  0  0  0  0  0  0
    8.6269    2.3829    0.0000 C   0  0  0  0  0  0  0  0  0  0  0  0
    7.7628    2.8863    0.0000 C   0  0  0  0  0  0  0  0  0  0  0  0
    9.4948    2.8796    0.0000 C   0  0  0  0  0  0  0  0  0  0  0  0
    9.4987    3.8796    0.0000 C   0  0  0  0  0  0  0  0  0  0  0  0
   10.3589    2.3763    0.0000 C   0  0  0  0  0  0  0  0  0  0  0  0
   10.3666    4.3762    0.0000 C   0  0  0  0  0  0  0  0  0  0  0  0
   11.2269    2.8729    0.0000 C   0  0  0  0  0  0  0  0  0  0  0  0
   11.2307    3.8729    0.0000 C   0  0  0  0  0  0  0  0  0  0  0  0
 15  1  1  6
 18  1  1  6
  2 20  1  0
  2 21  1  0
  3 18  1  0
  3 24  1  0
 16  4  1  1
 20  5  1  1
  5 27  1  0
 17  6  1  6
 19  7  1  1
 22  8  1  1
 23  9  1  6
 10 25  1  0
 11 30  1  0
 11 34  1  0
 12 31  1  0
 13 33  2  0
 14 41  1  0
 15 16  1  0
 15 20  1  0
 16 17  1  0
 17 21  1  0
 18 19  1  0
 19 22  1  0
 21 25  1  1
 22 23  1  0
 23 24  1  0
 24 26  1  1
 27 28  1  0
 27 29  2  0
 28 30  2  0
 29 31  1  0
 30 32  1  0
 31 32  2  0
 32 33  1  0
 33 35  1  0
 34 35  2  0
 34 36  1  0
 36 37  2  0
 36 38  1  0
 37 39  1  0
 38 40  2  0
 39 41  2  0
 40 41  1  0
M  END
>  <PUBCHEM_COMPOUND_CID>  (1) 
5282150

>  <PUBCHEM_COMPOUND_CANONICALIZED>  (1) 
1

>  <PUBCHEM_CACTVS_COMPLEXITY>  (1) 
939

>  <PUBCHEM_CACTVS_HBOND_ACCEPTOR>  (1) 
14

>  <PUBCHEM_CACTVS_HBOND_DONOR>  (1) 
8

>  <PUBCHEM_CACTVS_ROTATABLE_BOND>  (1) 
6

>  <PUBCHEM_CACTVS_SUBSKEYS>  (1) 
AAADceB4PAAAAAAAAAAAAAAAAAAAAAAAAAA0aIECAAAAAACBQAAAGgAACAAADBSwmAMyDoAABgCIAqBSAAACCAAkIAAIiAEGCMgdNzaGNRqieWCl4BUPuQfI7KzOIAAACAAIAABAAAAQABAAAAAAAAAAAA==

>  <PUBCHEM_IUPAC_OPENEYE_NAME>  (1) 
7-[(2S,3R,4S,5S,6R)-4,5-dihydroxy-6-(hydroxymethyl)-3-[(2S,3R,4R,5R,6S)-3,4,5-trihydroxy-6-methyl-tetrahydropyran-2-yl]oxy-tetrahydropyran-2-yl]oxy-5-hydroxy-2-(4-hydroxyphenyl)chromen-4-one

>  <PUBCHEM_IUPAC_CAS_NAME>  (1) 
7-[[(2S,3R,4S,5S,6R)-4,5-dihydroxy-6-(hydroxymethyl)-3-[[(2S,3R,4R,5R,6S)-3,4,5-trihydroxy-6-methyl-2-oxanyl]oxy]-2-oxanyl]oxy]-5-hydroxy-2-(4-hydroxyphenyl)-1-benzopyran-4-one

>  <PUBCHEM_IUPAC_NAME_MARKUP>  (1) 
7-[(2<I>S</I>,3<I>R</I>,4<I>S</I>,5<I>S</I>,6<I>R</I>)-4,5-dihydroxy-6-(hydroxymethyl)-3-[(2<I>S</I>,3<I>R</I>,4<I>R</I>,5<I>R</I>,6<I>S</I>)-3,4,5-trihydroxy-6-methyloxan-2-yl]oxyoxan-2-yl]oxy-5-hydroxy-2-(4-hydroxyphenyl)chromen-4-one

>  <PUBCHEM_IUPAC_NAME>  (1) 
7-[(2S,3R,4S,5S,6R)-4,5-dihydroxy-6-(hydroxymethyl)-3-[(2S,3R,4R,5R,6S)-3,4,5-trihydroxy-6-methyloxan-2-yl]oxyoxan-2-yl]oxy-5-hydroxy-2-(4-hydroxyphenyl)chromen-4-one

>  <PUBCHEM_IUPAC_SYSTEMATIC_NAME>  (1) 
7-[(2S,3R,4S,5S,6R)-6-(hydroxymethyl)-3-[(2S,3R,4R,5R,6S)-6-methyl-3,4,5-tris(oxidanyl)oxan-2-yl]oxy-4,5-bis(oxidanyl)oxan-2-yl]oxy-2-(4-hydroxyphenyl)-5-oxidanyl-chromen-4-one

>  <PUBCHEM_IUPAC_TRADITIONAL_NAME>  (1) 
7-[(2S,3R,4S,5S,6R)-4,5-dihydroxy-6-methylol-3-[(2S,3R,4R,5R,6S)-3,4,5-trihydroxy-6-methyl-tetrahydropyran-2-yl]oxy-tetrahydropyran-2-yl]oxy-5-hydroxy-2-(4-hydroxyphenyl)chromone

>  <PUBCHEM_IUPAC_INCHI>  (1) 
InChI=1S/C27H30O14/c1-10-20(32)22(34)24(36)26(37-10)41-25-23(35)21(33)18(9-28)40-27(25)38-13-6-14(30)19-15(31)8-16(39-17(19)7-13)11-2-4-12(29)5-3-11/h2-8,10,18,20-30,32-36H,9H2,1H3/t10-,18+,20-,21+,22+,23-,24+,25+,26-,27+/m0/s1

>  <PUBCHEM_IUPAC_INCHIKEY>  (1) 
RPMNUQRUHXIGHK-PYXJVEIZSA-N

>  <PUBCHEM_XLOGP3_AA>  (1) 
-0.2

>  <PUBCHEM_EXACT_MASS>  (1) 
578.16355563

>  <PUBCHEM_MOLECULAR_FORMULA>  (1) 
C27H30O14

>  <PUBCHEM_MOLECULAR_WEIGHT>  (1) 
578.5

>  <PUBCHEM_OPENEYE_CAN_SMILES>  (1) 
CC1C(C(C(C(O1)OC2C(C(C(OC2OC3=CC(=C4C(=C3)OC(=CC4=O)C5=CC=C(C=C5)O)O)CO)O)O)O)O)O

>  <PUBCHEM_OPENEYE_ISO_SMILES>  (1) 
C[C@H]1[C@@H]([C@H]([C@H]([C@@H](O1)O[C@@H]2[C@H]([C@@H]([C@H](O[C@H]2OC3=CC(=C4C(=C3)OC(=CC4=O)C5=CC=C(C=C5)O)O)CO)O)O)O)O)O

>  <PUBCHEM_CACTVS_TPSA>  (1) 
225

>  <PUBCHEM_MONOISOTOPIC_WEIGHT>  (1) 
578.16355563

>  <PUBCHEM_TOTAL_CHARGE>  (1) 
0

>  <PUBCHEM_HEAVY_ATOM_COUNT>  (1) 
41

>  <PUBCHEM_ATOM_DEF_STEREO_COUNT>  (1) 
10

>  <PUBCHEM_ATOM_UDEF_STEREO_COUNT>  (1) 
0

>  <PUBCHEM_BOND_DEF_STEREO_COUNT>  (1) 
0

>  <PUBCHEM_BOND_UDEF_STEREO_COUNT>  (1) 
0

>  <PUBCHEM_ISOTOPIC_ATOM_COUNT>  (1) 
0

>  <PUBCHEM_COMPONENT_COUNT>  (1) 
1

>  <PUBCHEM_CACTVS_TAUTO_COUNT>  (1) 
-1

>  <PUBCHEM_COORDINATE_TYPE>  (1) 
1
5
255

>  <PUBCHEM_BONDANNOTATIONS>  (1) 
15  1  6
18  1  6
11  30  8
11  34  8
21  25  5
24  26  5
27  28  8
27  29  8
28  30  8
29  31  8
30  32  8
31  32  8
32  33  8
33  35  8
34  35  8
36  37  8
36  38  8
37  39  8
38  40  8
39  41  8
16  4  5
40  41  8
20  5  5
17  6  6
19  7  5
22  8  5
23  9  6

$$$$
