5716903
     RDKit          2D

 30 32  0  0  1  0  0  0  0  0999 V2000
   11.5542   -0.9226    0.0000 O   0  0  0  0  0  0  0  0  0  0  0  0
    9.7942    2.1121    0.0000 O   0  0  0  0  0  0  0  0  0  0  0  0
   11.5426    2.1467    0.0000 O   0  0  0  0  0  0  0  0  0  0  0  0
    8.0622   -0.8879    0.0000 O   0  0  0  0  0  0  0  0  0  0  0  0
   15.9166   -2.4221    0.0000 O   0  0  0  0  0  0  0  0  0  0  0  0
   12.4603   -0.4087    0.0000 C   0  0  0  0  0  0  0  0  0  0  0  0
   12.4603    0.6329    0.0000 C   0  0  0  0  0  0  0  0  0  0  0  0
   10.6603    0.6121    0.0000 C   0  0  0  0  0  0  0  0  0  0  0  0
   10.6603   -0.3879    0.0000 C   0  0  0  0  0  0  0  0  0  0  0  0
   11.5542    1.1467    0.0000 C   0  0  0  0  0  0  0  0  0  0  0  0
    8.9282    0.6121    0.0000 C   0  0  0  0  0  0  0  0  0  0  0  0
   13.3244   -0.9121    0.0000 C   0  0  0  0  0  0  0  0  0  0  0  0
    9.7942    1.1121    0.0000 C   0  0  0  0  0  0  0  0  0  0  0  0
    8.0622    1.1121    0.0000 C   0  0  0  0  0  0  0  0  0  0  0  0
    9.7942   -0.8879    0.0000 C   0  0  0  0  0  0  0  0  0  0  0  0
    8.9282   -0.3879    0.0000 C   0  0  0  0  0  0  0  0  0  0  0  0
    7.1962    0.6121    0.0000 C   0  0  0  0  0  0  0  0  0  0  0  0
    6.3301    1.1121    0.0000 C   0  0  0  0  0  0  0  0  0  0  0  0
   13.3205   -1.9121    0.0000 C   0  0  0  0  0  0  0  0  0  0  0  0
   14.1923   -0.4154    0.0000 C   0  0  0  0  0  0  0  0  0  0  0  0
    5.4641    0.6121    0.0000 C   0  0  0  0  0  0  0  0  0  0  0  0
    4.5981    1.1121    0.0000 C   0  0  0  0  0  0  0  0  0  0  0  0
   14.1846   -2.4154    0.0000 C   0  0  0  0  0  0  0  0  0  0  0  0
   15.0564   -0.9188    0.0000 C   0  0  0  0  0  0  0  0  0  0  0  0
    6.3301    2.1121    0.0000 C   0  0  0  0  0  0  0  0  0  0  0  0
   15.0525   -1.9187    0.0000 C   0  0  0  0  0  0  0  0  0  0  0  0
    3.7320    0.6121    0.0000 C   0  0  0  0  0  0  0  0  0  0  0  0
    2.8660    1.1121    0.0000 C   0  0  0  0  0  0  0  0  0  0  0  0
    2.0000    0.6121    0.0000 C   0  0  0  0  0  0  0  0  0  0  0  0
    2.8660    2.1121    0.0000 C   0  0  0  0  0  0  0  0  0  0  0  0
  1  6  1  0
  1  9  1  0
  2 13  1  0
  3 10  2  0
  4 16  1  0
  5 26  1  0
  6  7  1  0
  6 12  1  1
  7 10  1  0
  8  9  2  0
  8 10  1  0
  8 13  1  0
  9 15  1  0
 11 13  2  0
 11 14  1  0
 11 16  1  0
 12 19  2  0
 12 20  1  0
 14 17  1  0
 15 16  2  0
 17 18  2  0
 18 21  1  0
 18 25  1  0
 19 23  1  0
 20 24  2  0
 21 22  1  0
 22 27  1  0
 23 26  2  0
 24 26  1  0
 27 28  2  0
 28 29  1  0
 28 30  1  0
M  END
>  <PUBCHEM_COMPOUND_CID>  (1) 
5716903

>  <PUBCHEM_COMPOUND_CANONICALIZED>  (1) 
1

>  <PUBCHEM_CACTVS_COMPLEXITY>  (1) 
642

>  <PUBCHEM_CACTVS_HBOND_ACCEPTOR>  (1) 
5

>  <PUBCHEM_CACTVS_HBOND_DONOR>  (1) 
3

>  <PUBCHEM_CACTVS_ROTATABLE_BOND>  (1) 
6

>  <PUBCHEM_CACTVS_SUBSKEYS>  (1) 
AAADceB4OAAAAAAAAAAAAAAAAAAAAAAAAAA0YIAAAAAAAACRQAAAGgAACAAADBSgmAIyBoAABgCIAqBSAAACCAAkIAAIiAEGCMgMJzaGNRqCeWCl4BUIuQeI7OzOIAACCAAIAABAAAQQABAAAAAAAAAAAA==

>  <PUBCHEM_IUPAC_OPENEYE_NAME>  (1) 
(2S)-6-[(2E)-3,7-dimethylocta-2,6-dienyl]-5,7-dihydroxy-2-(4-hydroxyphenyl)chroman-4-one

>  <PUBCHEM_IUPAC_CAS_NAME>  (1) 
(2S)-6-[(2E)-3,7-dimethylocta-2,6-dienyl]-5,7-dihydroxy-2-(4-hydroxyphenyl)-3,4-dihydro-2H-1-benzopyran-4-one

>  <PUBCHEM_IUPAC_NAME_MARKUP>  (1) 
(2<I>S</I>)-6-[(2<I>E</I>)-3,7-dimethylocta-2,6-dienyl]-5,7-dihydroxy-2-(4-hydroxyphenyl)-2,3-dihydrochromen-4-one

>  <PUBCHEM_IUPAC_NAME>  (1) 
(2S)-6-[(2E)-3,7-dimethylocta-2,6-dienyl]-5,7-dihydroxy-2-(4-hydroxyphenyl)-2,3-dihydrochromen-4-one

>  <PUBCHEM_IUPAC_SYSTEMATIC_NAME>  (1) 
(2S)-6-[(2E)-3,7-dimethylocta-2,6-dienyl]-2-(4-hydroxyphenyl)-5,7-bis(oxidanyl)-2,3-dihydrochromen-4-one

>  <PUBCHEM_IUPAC_TRADITIONAL_NAME>  (1) 
(2S)-6-[(2E)-3,7-dimethylocta-2,6-dienyl]-5,7-dihydroxy-2-(4-hydroxyphenyl)chroman-4-one

>  <PUBCHEM_IUPAC_INCHI>  (1) 
InChI=1S/C25H28O5/c1-15(2)5-4-6-16(3)7-12-19-20(27)13-23-24(25(19)29)21(28)14-22(30-23)17-8-10-18(26)11-9-17/h5,7-11,13,22,26-27,29H,4,6,12,14H2,1-3H3/b16-7+/t22-/m0/s1

>  <PUBCHEM_IUPAC_INCHIKEY>  (1) 
XYIQIBWIEGCVQY-RWHUQTJRSA-N

>  <PUBCHEM_XLOGP3_AA>  (1) 
6.2

>  <PUBCHEM_EXACT_MASS>  (1) 
408.19367399

>  <PUBCHEM_MOLECULAR_FORMULA>  (1) 
C25H28O5

>  <PUBCHEM_MOLECULAR_WEIGHT>  (1) 
408.5

>  <PUBCHEM_OPENEYE_CAN_SMILES>  (1) 
CC(=CCCC(=CCC1=C(C2=C(C=C1O)OC(CC2=O)C3=CC=C(C=C3)O)O)C)C

>  <PUBCHEM_OPENEYE_ISO_SMILES>  (1) 
CC(=CCC/C(=C/CC1=C(C2=C(C=C1O)O[C@@H](CC2=O)C3=CC=C(C=C3)O)O)/C)C

>  <PUBCHEM_CACTVS_TPSA>  (1) 
87

>  <PUBCHEM_MONOISOTOPIC_WEIGHT>  (1) 
408.19367399

>  <PUBCHEM_TOTAL_CHARGE>  (1) 
0

>  <PUBCHEM_HEAVY_ATOM_COUNT>  (1) 
30

>  <PUBCHEM_ATOM_DEF_STEREO_COUNT>  (1) 
1

>  <PUBCHEM_ATOM_UDEF_STEREO_COUNT>  (1) 
0

>  <PUBCHEM_BOND_DEF_STEREO_COUNT>  (1) 
1

>  <PUBCHEM_BOND_UDEF_STEREO_COUNT>  (1) 
0

>  <PUBCHEM_ISOTOPIC_ATOM_COUNT>  (1) 
0

>  <PUBCHEM_COMPONENT_COUNT>  (1) 
1

>  <PUBCHEM_CACTVS_TAUTO_COUNT>  (1) 
-1

>  <PUBCHEM_COORDINATE_TYPE>  (1) 
1
5
255

>  <PUBCHEM_BONDANNOTATIONS>  (1) 
11  13  8
11  16  8
12  19  8
12  20  8
15  16  8
19  23  8
20  24  8
23  26  8
24  26  8
6  12  5
8  13  8
8  9  8
9  15  8

$$$$
