14707658
     RDKit          2D

 34 36  0  0  1  0  0  0  0  0999 V2000
    6.0010    1.3450    0.0000 O   0  0  0  0  0  0  0  0  0  0  0  0
    5.1350   -0.1550    0.0000 O   0  0  0  0  0  0  0  0  0  0  0  0
    4.2690    2.3450    0.0000 O   0  0  0  0  0  0  0  0  0  0  0  0
    2.5369    1.3450    0.0000 O   0  0  0  0  0  0  0  0  0  0  0  0
    2.5369   -0.6550    0.0000 O   0  0  0  0  0  0  0  0  0  0  0  0
    8.5991   -0.1550    0.0000 O   0  0  0  0  0  0  0  0  0  0  0  0
    6.0010   -3.6550    0.0000 O   0  0  0  0  0  0  0  0  0  0  0  0
    7.7331   -4.6550    0.0000 O   0  0  0  0  0  0  0  0  0  0  0  0
   12.9292    2.3450    0.0000 O   0  0  0  0  0  0  0  0  0  0  0  0
   12.9292    4.3450    0.0000 O   0  0  0  0  0  0  0  0  0  0  0  0
    4.2690    1.3450    0.0000 C   0  0  0  0  0  0  0  0  0  0  0  0
    3.4030    0.8450    0.0000 C   0  0  0  0  0  0  0  0  0  0  0  0
    5.1350    0.8450    0.0000 C   0  0  0  0  0  0  0  0  0  0  0  0
    3.4030   -0.1550    0.0000 C   0  0  0  0  0  0  0  0  0  0  0  0
    6.8671    0.8450    0.0000 C   0  0  0  0  0  0  0  0  0  0  0  0
    4.2690   -0.6550    0.0000 C   0  0  0  0  0  0  0  0  0  0  0  0
    6.8671   -0.1550    0.0000 C   0  0  0  0  0  0  0  0  0  0  0  0
    7.7331    1.3450    0.0000 C   0  0  0  0  0  0  0  0  0  0  0  0
    7.7331   -0.6550    0.0000 C   0  0  0  0  0  0  0  0  0  0  0  0
    8.5991    0.8450    0.0000 C   0  0  0  0  0  0  0  0  0  0  0  0
    9.4651    1.3450    0.0000 C   0  0  0  0  0  0  0  0  0  0  0  0
    7.7331   -1.6550    0.0000 C   0  0  0  0  0  0  0  0  0  0  0  0
    9.4651    2.3450    0.0000 C   0  0  0  0  0  0  0  0  0  0  0  0
    6.8671   -2.1550    0.0000 C   0  0  0  0  0  0  0  0  0  0  0  0
    8.5991   -2.1550    0.0000 C   0  0  0  0  0  0  0  0  0  0  0  0
   10.3312    2.8450    0.0000 C   0  0  0  0  0  0  0  0  0  0  0  0
    6.8671   -3.1550    0.0000 C   0  0  0  0  0  0  0  0  0  0  0  0
    8.5991   -3.1550    0.0000 C   0  0  0  0  0  0  0  0  0  0  0  0
    7.7331   -3.6550    0.0000 C   0  0  0  0  0  0  0  0  0  0  0  0
   11.1972    2.3450    0.0000 C   0  0  0  0  0  0  0  0  0  0  0  0
   10.3312    3.8450    0.0000 C   0  0  0  0  0  0  0  0  0  0  0  0
   12.0632    2.8450    0.0000 C   0  0  0  0  0  0  0  0  0  0  0  0
   11.1972    4.3450    0.0000 C   0  0  0  0  0  0  0  0  0  0  0  0
   12.0632    3.8450    0.0000 C   0  0  0  0  0  0  0  0  0  0  0  0
 13  1  1  6
 15  1  1  0
  2 13  1  0
  2 16  1  0
 11  3  1  1
 12  4  1  6
 14  5  1  1
  6 20  2  0
  7 27  1  0
  8 29  1  0
  9 32  1  0
 10 34  1  0
 11 12  1  0
 11 13  1  0
 12 14  1  0
 14 16  1  0
 15 17  1  6
 15 18  1  0
 17 19  1  0
 18 20  1  0
 19 22  1  0
 20 21  1  0
 21 23  1  0
 22 24  2  0
 22 25  1  0
 23 26  1  0
 24 27  1  0
 25 28  2  0
 26 30  2  0
 26 31  1  0
 27 29  2  0
 28 29  1  0
 30 32  1  0
 31 33  2  0
 32 34  2  0
 33 34  1  0
M  END
>  <PUBCHEM_COMPOUND_CID>  (1) 
14707658

>  <PUBCHEM_COMPOUND_CANONICALIZED>  (1) 
1

>  <PUBCHEM_CACTVS_COMPLEXITY>  (1) 
633

>  <PUBCHEM_CACTVS_HBOND_ACCEPTOR>  (1) 
10

>  <PUBCHEM_CACTVS_HBOND_DONOR>  (1) 
7

>  <PUBCHEM_CACTVS_ROTATABLE_BOND>  (1) 
10

>  <PUBCHEM_CACTVS_SUBSKEYS>  (1) 
AAADceB4PAAAAAAAAAAAAAAAAAAAAAAAAAA0YIAAAAAAAAABQAAAGgAACAAADBSwmAMwDoAABgCIAqBSAAACAAAgIAAIiAEGiIgZNjaCERKicAEl4BEPmAfI6PiOIAABAAAAQABAAAIAAACAAAAAAAAAAA==

>  <PUBCHEM_IUPAC_OPENEYE_NAME>  (1) 
(5S)-1,7-bis(3,4-dihydroxyphenyl)-5-[(2S,3R,4S,5R)-3,4,5-trihydroxytetrahydropyran-2-yl]oxy-heptan-3-one

>  <PUBCHEM_IUPAC_CAS_NAME>  (1) 
(5S)-1,7-bis(3,4-dihydroxyphenyl)-5-[[(2S,3R,4S,5R)-3,4,5-trihydroxy-2-oxanyl]oxy]-3-heptanone

>  <PUBCHEM_IUPAC_NAME_MARKUP>  (1) 
(5<I>S</I>)-1,7-bis(3,4-dihydroxyphenyl)-5-[(2<I>S</I>,3<I>R</I>,4<I>S</I>,5<I>R</I>)-3,4,5-trihydroxyoxan-2-yl]oxyheptan-3-one

>  <PUBCHEM_IUPAC_NAME>  (1) 
(5S)-1,7-bis(3,4-dihydroxyphenyl)-5-[(2S,3R,4S,5R)-3,4,5-trihydroxyoxan-2-yl]oxyheptan-3-one

>  <PUBCHEM_IUPAC_SYSTEMATIC_NAME>  (1) 
(5S)-1,7-bis[3,4-bis(oxidanyl)phenyl]-5-[(2S,3R,4S,5R)-3,4,5-tris(oxidanyl)oxan-2-yl]oxy-heptan-3-one

>  <PUBCHEM_IUPAC_TRADITIONAL_NAME>  (1) 
(5S)-1,7-bis(3,4-dihydroxyphenyl)-5-[(2S,3R,4S,5R)-3,4,5-trihydroxytetrahydropyran-2-yl]oxy-heptan-3-one

>  <PUBCHEM_IUPAC_INCHI>  (1) 
InChI=1S/C24H30O10/c25-15(5-1-13-3-7-17(26)19(28)9-13)11-16(6-2-14-4-8-18(27)20(29)10-14)34-24-23(32)22(31)21(30)12-33-24/h3-4,7-10,16,21-24,26-32H,1-2,5-6,11-12H2/t16-,21+,22-,23+,24-/m0/s1

>  <PUBCHEM_IUPAC_INCHIKEY>  (1) 
AQRNEKDRSXYJIN-IRFILORWSA-N

>  <PUBCHEM_XLOGP3_AA>  (1) 
0.5

>  <PUBCHEM_EXACT_MASS>  (1) 
478.18389715

>  <PUBCHEM_MOLECULAR_FORMULA>  (1) 
C24H30O10

>  <PUBCHEM_MOLECULAR_WEIGHT>  (1) 
478.5

>  <PUBCHEM_OPENEYE_CAN_SMILES>  (1) 
C1C(C(C(C(O1)OC(CCC2=CC(=C(C=C2)O)O)CC(=O)CCC3=CC(=C(C=C3)O)O)O)O)O

>  <PUBCHEM_OPENEYE_ISO_SMILES>  (1) 
C1[C@H]([C@@H]([C@H]([C@@H](O1)O[C@@H](CCC2=CC(=C(C=C2)O)O)CC(=O)CCC3=CC(=C(C=C3)O)O)O)O)O

>  <PUBCHEM_CACTVS_TPSA>  (1) 
177

>  <PUBCHEM_MONOISOTOPIC_WEIGHT>  (1) 
478.18389715

>  <PUBCHEM_TOTAL_CHARGE>  (1) 
0

>  <PUBCHEM_HEAVY_ATOM_COUNT>  (1) 
34

>  <PUBCHEM_ATOM_DEF_STEREO_COUNT>  (1) 
5

>  <PUBCHEM_ATOM_UDEF_STEREO_COUNT>  (1) 
0

>  <PUBCHEM_BOND_DEF_STEREO_COUNT>  (1) 
0

>  <PUBCHEM_BOND_UDEF_STEREO_COUNT>  (1) 
0

>  <PUBCHEM_ISOTOPIC_ATOM_COUNT>  (1) 
0

>  <PUBCHEM_COMPONENT_COUNT>  (1) 
1

>  <PUBCHEM_CACTVS_TAUTO_COUNT>  (1) 
-1

>  <PUBCHEM_COORDINATE_TYPE>  (1) 
1
5
255

>  <PUBCHEM_BONDANNOTATIONS>  (1) 
13  1  6
15  1  6
22  24  8
22  25  8
24  27  8
25  28  8
26  30  8
26  31  8
27  29  8
28  29  8
11  3  5
30  32  8
31  33  8
32  34  8
33  34  8
12  4  6
14  5  5

$$$$
