11988319
     RDKit          2D

 18 19  0  0  0  0  0  0  0  0999 V2000
    6.0290   -2.2519    0.0000 O   0  0  0  0  0  0  0  0  0  0  0  0
    6.8776    1.3273    0.0000 O   0  0  0  0  0  0  0  0  0  0  0  0
    2.5369   -0.2172    0.0000 O   0  0  0  0  0  0  0  0  0  0  0  0
    2.5369   -2.2172    0.0000 O   0  0  0  0  0  0  0  0  0  0  0  0
    5.1456    1.3073    0.0000 O   0  0  0  0  0  0  0  0  0  0  0  0
    7.7991   -2.2414    0.0000 O   0  0  0  0  0  0  0  0  0  0  0  0
    5.1350   -0.7172    0.0000 C   0  0  0  0  0  0  0  0  0  0  0  0
    6.0290   -0.1826    0.0000 C   0  0  0  0  0  0  0  0  0  0  0  0
    5.1350   -1.7172    0.0000 C   0  0  0  0  0  0  0  0  0  0  0  0
    4.2690   -0.2172    0.0000 C   0  0  0  0  0  0  0  0  0  0  0  0
    4.2690   -2.2172    0.0000 C   0  0  0  0  0  0  0  0  0  0  0  0
    3.4030   -0.7172    0.0000 C   0  0  0  0  0  0  0  0  0  0  0  0
    6.9350   -0.6964    0.0000 C   0  0  0  0  0  0  0  0  0  0  0  0
    3.4030   -1.7172    0.0000 C   0  0  0  0  0  0  0  0  0  0  0  0
    6.0174    0.8174    0.0000 C   0  0  0  0  0  0  0  0  0  0  0  0
    6.9350   -1.7381    0.0000 C   0  0  0  0  0  0  0  0  0  0  0  0
    6.8660    2.3273    0.0000 C   0  0  0  0  0  0  0  0  0  0  0  0
    7.7262    2.8372    0.0000 C   0  0  0  0  0  0  0  0  0  0  0  0
  1  9  1  0
  1 16  1  0
  2 15  1  0
  2 17  1  0
  3 12  1  0
  4 14  1  0
  5 15  2  0
  6 16  2  0
  7  8  1  0
  7  9  2  0
  7 10  1  0
  8 13  2  0
  8 15  1  0
  9 11  1  0
 10 12  2  0
 11 14  2  0
 12 14  1  0
 13 16  1  0
 17 18  1  0
M  END
>  <PUBCHEM_COMPOUND_CID>  (1) 
11988319

>  <PUBCHEM_COMPOUND_CANONICALIZED>  (1) 
1

>  <PUBCHEM_CACTVS_COMPLEXITY>  (1) 
388

>  <PUBCHEM_CACTVS_HBOND_ACCEPTOR>  (1) 
6

>  <PUBCHEM_CACTVS_HBOND_DONOR>  (1) 
2

>  <PUBCHEM_CACTVS_ROTATABLE_BOND>  (1) 
3

>  <PUBCHEM_CACTVS_SUBSKEYS>  (1) 
AAADccBwOAAAAAAAAAAAAAAAAAAAAAAAAAAwQAAAAAAAAACBAAAAGgAACAAADASgmAIyDoAABgCIAiDSCAACCAAgIAAAiAEGiMgNJzKGNBqCeiGlwBUJuYfK7LzOIQABCAAIQABCAAIQABCAAAAAAAAAAA==

>  <PUBCHEM_IUPAC_OPENEYE_NAME>  (1) 
ethyl 6,7-dihydroxy-2-oxo-chromene-4-carboxylate

>  <PUBCHEM_IUPAC_CAS_NAME>  (1) 
6,7-dihydroxy-2-oxo-1-benzopyran-4-carboxylic acid ethyl ester

>  <PUBCHEM_IUPAC_NAME_MARKUP>  (1) 
ethyl 6,7-dihydroxy-2-oxochromene-4-carboxylate

>  <PUBCHEM_IUPAC_NAME>  (1) 
ethyl 6,7-dihydroxy-2-oxochromene-4-carboxylate

>  <PUBCHEM_IUPAC_SYSTEMATIC_NAME>  (1) 
ethyl 6,7-bis(oxidanyl)-2-oxidanylidene-chromene-4-carboxylate

>  <PUBCHEM_IUPAC_TRADITIONAL_NAME>  (1) 
6,7-dihydroxy-2-keto-chromene-4-carboxylic acid ethyl ester

>  <PUBCHEM_IUPAC_INCHI>  (1) 
InChI=1S/C12H10O6/c1-2-17-12(16)7-4-11(15)18-10-5-9(14)8(13)3-6(7)10/h3-5,13-14H,2H2,1H3

>  <PUBCHEM_IUPAC_INCHIKEY>  (1) 
JNLQJJYMVWQTQR-UHFFFAOYSA-N

>  <PUBCHEM_XLOGP3_AA>  (1) 
1.1

>  <PUBCHEM_EXACT_MASS>  (1) 
250.04773803

>  <PUBCHEM_MOLECULAR_FORMULA>  (1) 
C12H10O6

>  <PUBCHEM_MOLECULAR_WEIGHT>  (1) 
250.20

>  <PUBCHEM_OPENEYE_CAN_SMILES>  (1) 
CCOC(=O)C1=CC(=O)OC2=CC(=C(C=C12)O)O

>  <PUBCHEM_OPENEYE_ISO_SMILES>  (1) 
CCOC(=O)C1=CC(=O)OC2=CC(=C(C=C12)O)O

>  <PUBCHEM_CACTVS_TPSA>  (1) 
93.1

>  <PUBCHEM_MONOISOTOPIC_WEIGHT>  (1) 
250.04773803

>  <PUBCHEM_TOTAL_CHARGE>  (1) 
0

>  <PUBCHEM_HEAVY_ATOM_COUNT>  (1) 
18

>  <PUBCHEM_ATOM_DEF_STEREO_COUNT>  (1) 
0

>  <PUBCHEM_ATOM_UDEF_STEREO_COUNT>  (1) 
0

>  <PUBCHEM_BOND_DEF_STEREO_COUNT>  (1) 
0

>  <PUBCHEM_BOND_UDEF_STEREO_COUNT>  (1) 
0

>  <PUBCHEM_ISOTOPIC_ATOM_COUNT>  (1) 
0

>  <PUBCHEM_COMPONENT_COUNT>  (1) 
1

>  <PUBCHEM_CACTVS_TAUTO_COUNT>  (1) 
-1

>  <PUBCHEM_COORDINATE_TYPE>  (1) 
1
5
255

>  <PUBCHEM_BONDANNOTATIONS>  (1) 
1  16  8
1  9  8
10  12  8
11  14  8
12  14  8
13  16  8
7  10  8
7  8  8
7  9  8
8  13  8
9  11  8

$$$$
