114917
     RDKit          2D

 21 24  0  0  0  0  0  0  0  0999 V2000
    7.4714   -0.0057    0.0000 O   0  0  0  0  0  0  0  0  0  0  0  0
    3.9271    1.7991    0.0000 O   0  0  0  0  0  0  0  0  0  0  0  0
    5.6591    2.7991    0.0000 O   0  0  0  0  0  0  0  0  0  0  0  0
    4.7931    0.2991    0.0000 C   0  0  0  0  0  0  0  0  0  0  0  0
    5.6591   -0.2009    0.0000 C   0  0  0  0  0  0  0  0  0  0  0  0
    3.8831   -0.2078    0.0000 C   0  0  0  0  0  0  0  0  0  0  0  0
    6.5251    0.2991    0.0000 C   0  0  0  0  0  0  0  0  0  0  0  0
    6.5251    1.2991    0.0000 C   0  0  0  0  0  0  0  0  0  0  0  0
    3.8751   -1.2494    0.0000 C   0  0  0  0  0  0  0  0  0  0  0  0
    4.7931    1.2991    0.0000 C   0  0  0  0  0  0  0  0  0  0  0  0
    5.6752   -1.2424    0.0000 C   0  0  0  0  0  0  0  0  0  0  0  0
    7.4714    1.6038    0.0000 C   0  0  0  0  0  0  0  0  0  0  0  0
    5.6591    1.7991    0.0000 C   0  0  0  0  0  0  0  0  0  0  0  0
    4.7771   -1.7702    0.0000 C   0  0  0  0  0  0  0  0  0  0  0  0
    2.9396   -1.7991    0.0000 C   0  0  0  0  0  0  0  0  0  0  0  0
    2.9562    0.3563    0.0000 C   0  0  0  0  0  0  0  0  0  0  0  0
    8.0550    0.7991    0.0000 C   0  0  0  0  0  0  0  0  0  0  0  0
    2.0000   -1.2566    0.0000 C   0  0  0  0  0  0  0  0  0  0  0  0
    2.0084   -0.1716    0.0000 C   0  0  0  0  0  0  0  0  0  0  0  0
    7.7820    2.5543    0.0000 C   0  0  0  0  0  0  0  0  0  0  0  0
    2.9435   -2.7991    0.0000 C   0  0  0  0  0  0  0  0  0  0  0  0
  1  7  1  0
  1 17  1  0
  2 10  2  0
  3 13  2  0
  4  5  2  0
  4  6  1  0
  4 10  1  0
  5  7  1  0
  5 11  1  0
  6  9  2  0
  6 16  1  0
  7  8  2  0
  8 12  1  0
  8 13  1  0
  9 14  1  0
  9 15  1  0
 10 13  1  0
 11 14  2  0
 12 17  2  0
 12 20  1  0
 15 18  2  0
 15 21  1  0
 16 19  2  0
 18 19  1  0
M  END
>  <PUBCHEM_COMPOUND_CID>  (1) 
114917

>  <PUBCHEM_COMPOUND_CANONICALIZED>  (1) 
1

>  <PUBCHEM_CACTVS_COMPLEXITY>  (1) 
471

>  <PUBCHEM_CACTVS_HBOND_ACCEPTOR>  (1) 
3

>  <PUBCHEM_CACTVS_HBOND_DONOR>  (1) 
0

>  <PUBCHEM_CACTVS_ROTATABLE_BOND>  (1) 
0

>  <PUBCHEM_CACTVS_SUBSKEYS>  (1) 
AAADccB4MAAAAAAAAAAAAAAAAAAAASAAAAAwYMAAAAAAAEjB1AAAGgAAAAAADASgmAIyBMAABECIAqhSgAACCAAkIAAIiAEECMgMJjaMNRqCOWCk4BEIqYeLzvDuwAACAAAQAACAAAYAADAAAAAAAAAAAA==

>  <PUBCHEM_IUPAC_OPENEYE_NAME>  (1) 
1,6-dimethylnaphtho[1,2-g]benzofuran-10,11-dione

>  <PUBCHEM_IUPAC_CAS_NAME>  (1) 
1,6-dimethylnaphtho[1,2-g]benzofuran-10,11-dione

>  <PUBCHEM_IUPAC_NAME_MARKUP>  (1) 
1,6-dimethylnaphtho[1,2-g][1]benzofuran-10,11-dione

>  <PUBCHEM_IUPAC_NAME>  (1) 
1,6-dimethylnaphtho[1,2-g][1]benzofuran-10,11-dione

>  <PUBCHEM_IUPAC_SYSTEMATIC_NAME>  (1) 
1,6-dimethylnaphtho[1,2-g][1]benzofuran-10,11-dione

>  <PUBCHEM_IUPAC_TRADITIONAL_NAME>  (1) 
1,6-dimethylnaphtho[1,2-g]benzofuran-10,11-quinone

>  <PUBCHEM_IUPAC_INCHI>  (1) 
InChI=1S/C18H12O3/c1-9-4-3-5-12-11(9)6-7-13-15(12)17(20)16(19)14-10(2)8-21-18(13)14/h3-8H,1-2H3

>  <PUBCHEM_IUPAC_INCHIKEY>  (1) 
AIGAZQPHXLWMOJ-UHFFFAOYSA-N

>  <PUBCHEM_XLOGP3_AA>  (1) 
3.7

>  <PUBCHEM_EXACT_MASS>  (1) 
276.078644241

>  <PUBCHEM_MOLECULAR_FORMULA>  (1) 
C18H12O3

>  <PUBCHEM_MOLECULAR_WEIGHT>  (1) 
276.3

>  <PUBCHEM_OPENEYE_CAN_SMILES>  (1) 
CC1=C2C=CC3=C(C2=CC=C1)C(=O)C(=O)C4=C3OC=C4C

>  <PUBCHEM_OPENEYE_ISO_SMILES>  (1) 
CC1=C2C=CC3=C(C2=CC=C1)C(=O)C(=O)C4=C3OC=C4C

>  <PUBCHEM_CACTVS_TPSA>  (1) 
47.3

>  <PUBCHEM_MONOISOTOPIC_WEIGHT>  (1) 
276.078644241

>  <PUBCHEM_TOTAL_CHARGE>  (1) 
0

>  <PUBCHEM_HEAVY_ATOM_COUNT>  (1) 
21

>  <PUBCHEM_ATOM_DEF_STEREO_COUNT>  (1) 
0

>  <PUBCHEM_ATOM_UDEF_STEREO_COUNT>  (1) 
0

>  <PUBCHEM_BOND_DEF_STEREO_COUNT>  (1) 
0

>  <PUBCHEM_BOND_UDEF_STEREO_COUNT>  (1) 
0

>  <PUBCHEM_ISOTOPIC_ATOM_COUNT>  (1) 
0

>  <PUBCHEM_COMPONENT_COUNT>  (1) 
1

>  <PUBCHEM_CACTVS_TAUTO_COUNT>  (1) 
-1

>  <PUBCHEM_COORDINATE_TYPE>  (1) 
1
5
255

>  <PUBCHEM_BONDANNOTATIONS>  (1) 
1  17  8
1  7  8
11  14  8
12  17  8
15  18  8
16  19  8
18  19  8
4  5  8
4  6  8
5  11  8
6  16  8
6  9  8
7  8  8
8  12  8
9  14  8
9  15  8

$$$$
