160142
     RDKit          2D

 21 23  0  0  0  0  0  0  0  0999 V2000
    4.6497    1.7620    0.0000 O   0  0  0  0  0  0  0  0  0  0  0  0
    2.8680    0.7516    0.0000 O   0  0  0  0  0  0  0  0  0  0  0  0
    8.1741    0.7343    0.0000 C   0  0  0  0  0  0  0  0  0  0  0  0
    8.1821    1.7759    0.0000 C   0  0  0  0  0  0  0  0  0  0  0  0
    7.2641    0.2274    0.0000 C   0  0  0  0  0  0  0  0  0  0  0  0
    7.2800    2.2967    0.0000 C   0  0  0  0  0  0  0  0  0  0  0  0
    6.3981    0.7274    0.0000 C   0  0  0  0  0  0  0  0  0  0  0  0
    6.3820    1.7690    0.0000 C   0  0  0  0  0  0  0  0  0  0  0  0
    9.1740    0.7227    0.0000 C   0  0  0  0  0  0  0  0  0  0  0  0
    8.6640   -0.1375    0.0000 C   0  0  0  0  0  0  0  0  0  0  0  0
    5.5320    0.2274    0.0000 C   0  0  0  0  0  0  0  0  0  0  0  0
    7.2641   -0.7726    0.0000 C   0  0  0  0  0  0  0  0  0  0  0  0
    5.5320   -0.7726    0.0000 C   0  0  0  0  0  0  0  0  0  0  0  0
    6.3981   -1.2726    0.0000 C   0  0  0  0  0  0  0  0  0  0  0  0
    4.6381    0.7621    0.0000 C   0  0  0  0  0  0  0  0  0  0  0  0
    4.6381   -1.3072    0.0000 C   0  0  0  0  0  0  0  0  0  0  0  0
    3.7320   -0.7934    0.0000 C   0  0  0  0  0  0  0  0  0  0  0  0
    3.7320    0.2483    0.0000 C   0  0  0  0  0  0  0  0  0  0  0  0
    2.8680   -1.2967    0.0000 C   0  0  0  0  0  0  0  0  0  0  0  0
    2.8718   -2.2967    0.0000 C   0  0  0  0  0  0  0  0  0  0  0  0
    2.0000   -0.8001    0.0000 C   0  0  0  0  0  0  0  0  0  0  0  0
  1 15  2  0
  2 18  2  0
  3  4  1  0
  3  5  1  0
  3  9  1  0
  3 10  1  0
  4  6  1  0
  5  7  2  0
  5 12  1  0
  6  8  1  0
  7  8  1  0
  7 11  1  0
 11 13  2  0
 11 15  1  0
 12 14  2  0
 13 14  1  0
 13 16  1  0
 15 18  1  0
 16 17  2  0
 17 18  1  0
 17 19  1  0
 19 20  1  0
 19 21  1  0
M  END
>  <PUBCHEM_COMPOUND_CID>  (1) 
160142

>  <PUBCHEM_COMPOUND_CANONICALIZED>  (1) 
1

>  <PUBCHEM_CACTVS_COMPLEXITY>  (1) 
498

>  <PUBCHEM_CACTVS_HBOND_ACCEPTOR>  (1) 
2

>  <PUBCHEM_CACTVS_HBOND_DONOR>  (1) 
0

>  <PUBCHEM_CACTVS_ROTATABLE_BOND>  (1) 
1

>  <PUBCHEM_CACTVS_SUBSKEYS>  (1) 
AAADceB4MAAAAAAAAAAAAAAAAAAAAAAAAAAwYIAAAAAAAADBAAAAGgAAAAAADwSAmAAyAIAAAACIAqBSAAACAAAkAAAIiAEAAMgIIDKAFRCAIQAggAAIiYcIiMCPwAACAAAQAACAAAQAACAAAAAAAAAAAA==

>  <PUBCHEM_IUPAC_OPENEYE_NAME>  (1) 
2-isopropyl-8,8-dimethyl-6,7-dihydro-5H-phenanthrene-3,4-dione

>  <PUBCHEM_IUPAC_CAS_NAME>  (1) 
8,8-dimethyl-2-propan-2-yl-6,7-dihydro-5H-phenanthrene-3,4-dione

>  <PUBCHEM_IUPAC_NAME_MARKUP>  (1) 
8,8-dimethyl-2-propan-2-yl-6,7-dihydro-5<I>H</I>-phenanthrene-3,4-dione

>  <PUBCHEM_IUPAC_NAME>  (1) 
8,8-dimethyl-2-propan-2-yl-6,7-dihydro-5H-phenanthrene-3,4-dione

>  <PUBCHEM_IUPAC_SYSTEMATIC_NAME>  (1) 
8,8-dimethyl-2-propan-2-yl-6,7-dihydro-5H-phenanthrene-3,4-dione

>  <PUBCHEM_IUPAC_TRADITIONAL_NAME>  (1) 
2-isopropyl-8,8-dimethyl-6,7-dihydro-5H-phenanthrene-3,4-quinone

>  <PUBCHEM_IUPAC_INCHI>  (1) 
InChI=1S/C19H22O2/c1-11(2)14-10-12-7-8-15-13(6-5-9-19(15,3)4)16(12)18(21)17(14)20/h7-8,10-11H,5-6,9H2,1-4H3

>  <PUBCHEM_IUPAC_INCHIKEY>  (1) 
FEFAIBOZOKSLJR-UHFFFAOYSA-N

>  <PUBCHEM_XLOGP3_AA>  (1) 
4.9

>  <PUBCHEM_EXACT_MASS>  (1) 
282.161979940

>  <PUBCHEM_MOLECULAR_FORMULA>  (1) 
C19H22O2

>  <PUBCHEM_MOLECULAR_WEIGHT>  (1) 
282.4

>  <PUBCHEM_OPENEYE_CAN_SMILES>  (1) 
CC(C)C1=CC2=C(C3=C(C=C2)C(CCC3)(C)C)C(=O)C1=O

>  <PUBCHEM_OPENEYE_ISO_SMILES>  (1) 
CC(C)C1=CC2=C(C3=C(C=C2)C(CCC3)(C)C)C(=O)C1=O

>  <PUBCHEM_CACTVS_TPSA>  (1) 
34.1

>  <PUBCHEM_MONOISOTOPIC_WEIGHT>  (1) 
282.161979940

>  <PUBCHEM_TOTAL_CHARGE>  (1) 
0

>  <PUBCHEM_HEAVY_ATOM_COUNT>  (1) 
21

>  <PUBCHEM_ATOM_DEF_STEREO_COUNT>  (1) 
0

>  <PUBCHEM_ATOM_UDEF_STEREO_COUNT>  (1) 
0

>  <PUBCHEM_BOND_DEF_STEREO_COUNT>  (1) 
0

>  <PUBCHEM_BOND_UDEF_STEREO_COUNT>  (1) 
0

>  <PUBCHEM_ISOTOPIC_ATOM_COUNT>  (1) 
0

>  <PUBCHEM_COMPONENT_COUNT>  (1) 
1

>  <PUBCHEM_CACTVS_TAUTO_COUNT>  (1) 
-1

>  <PUBCHEM_COORDINATE_TYPE>  (1) 
1
5
255

>  <PUBCHEM_BONDANNOTATIONS>  (1) 
11  13  8
12  14  8
13  14  8
5  12  8
5  7  8
7  11  8

$$$$
