637775
     RDKit          2D

 16 16  0  0  0  0  0  0  0  0999 V2000
    6.3301   -2.1550    0.0000 O   0  0  0  0  0  0  0  0  0  0  0  0
    2.8660   -2.1550    0.0000 O   0  0  0  0  0  0  0  0  0  0  0  0
    4.5981   -3.1550    0.0000 O   0  0  0  0  0  0  0  0  0  0  0  0
    6.3301    2.8450    0.0000 O   0  0  0  0  0  0  0  0  0  0  0  0
    4.5981    2.8450    0.0000 O   0  0  0  0  0  0  0  0  0  0  0  0
    4.5981   -0.1550    0.0000 C   0  0  0  0  0  0  0  0  0  0  0  0
    5.4641   -1.6550    0.0000 C   0  0  0  0  0  0  0  0  0  0  0  0
    3.7320   -1.6550    0.0000 C   0  0  0  0  0  0  0  0  0  0  0  0
    4.5981   -2.1550    0.0000 C   0  0  0  0  0  0  0  0  0  0  0  0
    5.4641   -0.6550    0.0000 C   0  0  0  0  0  0  0  0  0  0  0  0
    3.7320   -0.6550    0.0000 C   0  0  0  0  0  0  0  0  0  0  0  0
    4.5981    0.8450    0.0000 C   0  0  0  0  0  0  0  0  0  0  0  0
    5.4641    1.3450    0.0000 C   0  0  0  0  0  0  0  0  0  0  0  0
    7.1962   -1.6550    0.0000 C   0  0  0  0  0  0  0  0  0  0  0  0
    2.0000   -1.6550    0.0000 C   0  0  0  0  0  0  0  0  0  0  0  0
    5.4641    2.3450    0.0000 C   0  0  0  0  0  0  0  0  0  0  0  0
  1  7  1  0
  1 14  1  0
  2  8  1  0
  2 15  1  0
  3  9  1  0
  4 16  1  0
  5 16  2  0
  6 10  2  0
  6 11  1  0
  6 12  1  0
  7  9  2  0
  7 10  1  0
  8  9  1  0
  8 11  2  0
 12 13  2  0
 13 16  1  0
M  END
>  <PUBCHEM_COMPOUND_CID>  (1) 
637775

>  <PUBCHEM_COMPOUND_CANONICALIZED>  (1) 
1

>  <PUBCHEM_CACTVS_COMPLEXITY>  (1) 
249

>  <PUBCHEM_CACTVS_HBOND_ACCEPTOR>  (1) 
5

>  <PUBCHEM_CACTVS_HBOND_DONOR>  (1) 
2

>  <PUBCHEM_CACTVS_ROTATABLE_BOND>  (1) 
4

>  <PUBCHEM_CACTVS_SUBSKEYS>  (1) 
AAADccBwOAAAAAAAAAAAAAAAAAAAAAAAAAAwAAAAAAAAAAABAAAAGgAACAAADASAmAIyDoAABgCIAiDSCAACCAAgIAAIiAAGiMgNJyKGMRqAcCMlwBULuYeA4BwOIAABCAAAQABAAAIQAACAAAAAAAAAAA==

>  <PUBCHEM_IUPAC_OPENEYE_NAME>  (1) 
(E)-3-(4-hydroxy-3,5-dimethoxy-phenyl)prop-2-enoic acid

>  <PUBCHEM_IUPAC_CAS_NAME>  (1) 
(E)-3-(4-hydroxy-3,5-dimethoxyphenyl)-2-propenoic acid

>  <PUBCHEM_IUPAC_NAME_MARKUP>  (1) 
(<I>E</I>)-3-(4-hydroxy-3,5-dimethoxyphenyl)prop-2-enoic acid

>  <PUBCHEM_IUPAC_NAME>  (1) 
(E)-3-(4-hydroxy-3,5-dimethoxyphenyl)prop-2-enoic acid

>  <PUBCHEM_IUPAC_SYSTEMATIC_NAME>  (1) 
(E)-3-(3,5-dimethoxy-4-oxidanyl-phenyl)prop-2-enoic acid

>  <PUBCHEM_IUPAC_TRADITIONAL_NAME>  (1) 
(E)-3-(4-hydroxy-3,5-dimethoxy-phenyl)acrylic acid

>  <PUBCHEM_IUPAC_INCHI>  (1) 
InChI=1S/C11H12O5/c1-15-8-5-7(3-4-10(12)13)6-9(16-2)11(8)14/h3-6,14H,1-2H3,(H,12,13)/b4-3+

>  <PUBCHEM_IUPAC_INCHIKEY>  (1) 
PCMORTLOPMLEFB-ONEGZZNKSA-N

>  <PUBCHEM_XLOGP3_AA>  (1) 
1.5

>  <PUBCHEM_EXACT_MASS>  (1) 
224.06847348

>  <PUBCHEM_MOLECULAR_FORMULA>  (1) 
C11H12O5

>  <PUBCHEM_MOLECULAR_WEIGHT>  (1) 
224.21

>  <PUBCHEM_OPENEYE_CAN_SMILES>  (1) 
COC1=CC(=CC(=C1O)OC)C=CC(=O)O

>  <PUBCHEM_OPENEYE_ISO_SMILES>  (1) 
COC1=CC(=CC(=C1O)OC)/C=C/C(=O)O

>  <PUBCHEM_CACTVS_TPSA>  (1) 
76

>  <PUBCHEM_MONOISOTOPIC_WEIGHT>  (1) 
224.06847348

>  <PUBCHEM_TOTAL_CHARGE>  (1) 
0

>  <PUBCHEM_HEAVY_ATOM_COUNT>  (1) 
16

>  <PUBCHEM_ATOM_DEF_STEREO_COUNT>  (1) 
0

>  <PUBCHEM_ATOM_UDEF_STEREO_COUNT>  (1) 
0

>  <PUBCHEM_BOND_DEF_STEREO_COUNT>  (1) 
1

>  <PUBCHEM_BOND_UDEF_STEREO_COUNT>  (1) 
0

>  <PUBCHEM_ISOTOPIC_ATOM_COUNT>  (1) 
0

>  <PUBCHEM_COMPONENT_COUNT>  (1) 
1

>  <PUBCHEM_CACTVS_TAUTO_COUNT>  (1) 
-1

>  <PUBCHEM_COORDINATE_TYPE>  (1) 
1
5
255

>  <PUBCHEM_BONDANNOTATIONS>  (1) 
6  10  8
6  11  8
7  10  8
7  9  8
8  11  8
8  9  8

$$$$
