65064
     RDKit          2D

 33 36  0  0  1  0  0  0  0  0999 V2000
    6.0682   -1.7500    0.0000 O   0  0  0  0  0  0  0  0  0  0  0  0
    7.8003    0.2500    0.0000 O   0  0  0  0  0  0  0  0  0  0  0  0
    4.3198    1.2846    0.0000 O   0  0  0  0  0  0  0  0  0  0  0  0
    2.5381   -1.7742    0.0000 O   0  0  0  0  0  0  0  0  0  0  0  0
   10.3984   -1.2500    0.0000 O   0  0  0  0  0  0  0  0  0  0  0  0
    8.6663   -4.2500    0.0000 O   0  0  0  0  0  0  0  0  0  0  0  0
    6.9343    1.7500    0.0000 O   0  0  0  0  0  0  0  0  0  0  0  0
   10.3984   -3.2500    0.0000 O   0  0  0  0  0  0  0  0  0  0  0  0
   11.2644    1.2500    0.0000 O   0  0  0  0  0  0  0  0  0  0  0  0
    9.5323    4.2500    0.0000 O   0  0  0  0  0  0  0  0  0  0  0  0
   11.2644    3.2500    0.0000 O   0  0  0  0  0  0  0  0  0  0  0  0
    6.9343   -0.2500    0.0000 C   0  0  0  0  0  0  0  0  0  0  0  0
    6.9343   -1.2500    0.0000 C   0  0  0  0  0  0  0  0  0  0  0  0
    6.0682    0.2500    0.0000 C   0  0  0  0  0  0  0  0  0  0  0  0
    5.2022   -0.2500    0.0000 C   0  0  0  0  0  0  0  0  0  0  0  0
    7.8003   -1.7500    0.0000 C   0  0  0  0  0  0  0  0  0  0  0  0
    5.2022   -1.2500    0.0000 C   0  0  0  0  0  0  0  0  0  0  0  0
    4.3083    0.2847    0.0000 C   0  0  0  0  0  0  0  0  0  0  0  0
    4.3083   -1.7847    0.0000 C   0  0  0  0  0  0  0  0  0  0  0  0
    7.8003   -2.7500    0.0000 C   0  0  0  0  0  0  0  0  0  0  0  0
    8.6663   -1.2500    0.0000 C   0  0  0  0  0  0  0  0  0  0  0  0
    3.4022   -0.2292    0.0000 C   0  0  0  0  0  0  0  0  0  0  0  0
    3.4022   -1.2708    0.0000 C   0  0  0  0  0  0  0  0  0  0  0  0
    7.8003    1.2500    0.0000 C   0  0  0  0  0  0  0  0  0  0  0  0
    9.5323   -1.7500    0.0000 C   0  0  0  0  0  0  0  0  0  0  0  0
    8.6663   -3.2500    0.0000 C   0  0  0  0  0  0  0  0  0  0  0  0
    9.5323   -2.7500    0.0000 C   0  0  0  0  0  0  0  0  0  0  0  0
    8.6663    1.7500    0.0000 C   0  0  0  0  0  0  0  0  0  0  0  0
    8.6663    2.7500    0.0000 C   0  0  0  0  0  0  0  0  0  0  0  0
    9.5323    1.2500    0.0000 C   0  0  0  0  0  0  0  0  0  0  0  0
   10.3984    1.7500    0.0000 C   0  0  0  0  0  0  0  0  0  0  0  0
    9.5323    3.2500    0.0000 C   0  0  0  0  0  0  0  0  0  0  0  0
   10.3984    2.7500    0.0000 C   0  0  0  0  0  0  0  0  0  0  0  0
  1 13  1  0
  1 17  1  0
 12  2  1  1
  2 24  1  0
  3 18  1  0
  4 23  1  0
  5 25  1  0
  6 26  1  0
  7 24  2  0
  8 27  1  0
  9 31  1  0
 10 32  1  0
 11 33  1  0
 12 13  1  0
 12 14  1  0
 13 16  1  1
 14 15  1  0
 15 17  2  0
 15 18  1  0
 16 20  2  0
 16 21  1  0
 17 19  1  0
 18 22  2  0
 19 23  2  0
 20 26  1  0
 21 25  2  0
 22 23  1  0
 24 28  1  0
 25 27  1  0
 26 27  2  0
 28 29  2  0
 28 30  1  0
 29 32  1  0
 30 31  2  0
 31 33  1  0
 32 33  2  0
M  END
>  <PUBCHEM_COMPOUND_CID>  (1) 
65064

>  <PUBCHEM_COMPOUND_CANONICALIZED>  (1) 
1

>  <PUBCHEM_CACTVS_COMPLEXITY>  (1) 
667

>  <PUBCHEM_CACTVS_HBOND_ACCEPTOR>  (1) 
11

>  <PUBCHEM_CACTVS_HBOND_DONOR>  (1) 
8

>  <PUBCHEM_CACTVS_ROTATABLE_BOND>  (1) 
4

>  <PUBCHEM_CACTVS_SUBSKEYS>  (1) 
AAADceB4PAAAAAAAAAAAAAAAAAAAAAAAAAA0YMEAAAAAAACRUAAAGgAACAAADBSgmAIwDoAABgCIAiDSCAACCAAkIAAAiAEGiMgNJzKGNRqCeSGlwBULuYfK7PzOIAABCAAIQABAAAIQABCAAAAAAAAAAA==

>  <PUBCHEM_IUPAC_OPENEYE_NAME>  (1) 
[(2R,3R)-5,7-dihydroxy-2-(3,4,5-trihydroxyphenyl)chroman-3-yl] 3,4,5-trihydroxybenzoate

>  <PUBCHEM_IUPAC_CAS_NAME>  (1) 
3,4,5-trihydroxybenzoic acid [(2R,3R)-5,7-dihydroxy-2-(3,4,5-trihydroxyphenyl)-3,4-dihydro-2H-1-benzopyran-3-yl] ester

>  <PUBCHEM_IUPAC_NAME_MARKUP>  (1) 
[(2<I>R</I>,3<I>R</I>)-5,7-dihydroxy-2-(3,4,5-trihydroxyphenyl)-3,4-dihydro-2<I>H</I>-chromen-3-yl] 3,4,5-trihydroxybenzoate

>  <PUBCHEM_IUPAC_NAME>  (1) 
[(2R,3R)-5,7-dihydroxy-2-(3,4,5-trihydroxyphenyl)-3,4-dihydro-2H-chromen-3-yl] 3,4,5-trihydroxybenzoate

>  <PUBCHEM_IUPAC_SYSTEMATIC_NAME>  (1) 
[(2R,3R)-5,7-bis(oxidanyl)-2-[3,4,5-tris(oxidanyl)phenyl]-3,4-dihydro-2H-chromen-3-yl] 3,4,5-tris(oxidanyl)benzoate

>  <PUBCHEM_IUPAC_TRADITIONAL_NAME>  (1) 
3,4,5-trihydroxybenzoic acid [(2R,3R)-5,7-dihydroxy-2-(3,4,5-trihydroxyphenyl)chroman-3-yl] ester

>  <PUBCHEM_IUPAC_INCHI>  (1) 
InChI=1S/C22H18O11/c23-10-5-12(24)11-7-18(33-22(31)9-3-15(27)20(30)16(28)4-9)21(32-17(11)6-10)8-1-13(25)19(29)14(26)2-8/h1-6,18,21,23-30H,7H2/t18-,21-/m1/s1

>  <PUBCHEM_IUPAC_INCHIKEY>  (1) 
WMBWREPUVVBILR-WIYYLYMNSA-N

>  <PUBCHEM_XLOGP3>  (1) 
1.2

>  <PUBCHEM_EXACT_MASS>  (1) 
458.08491139

>  <PUBCHEM_MOLECULAR_FORMULA>  (1) 
C22H18O11

>  <PUBCHEM_MOLECULAR_WEIGHT>  (1) 
458.4

>  <PUBCHEM_OPENEYE_CAN_SMILES>  (1) 
C1C(C(OC2=CC(=CC(=C21)O)O)C3=CC(=C(C(=C3)O)O)O)OC(=O)C4=CC(=C(C(=C4)O)O)O

>  <PUBCHEM_OPENEYE_ISO_SMILES>  (1) 
C1[C@H]([C@H](OC2=CC(=CC(=C21)O)O)C3=CC(=C(C(=C3)O)O)O)OC(=O)C4=CC(=C(C(=C4)O)O)O

>  <PUBCHEM_CACTVS_TPSA>  (1) 
197

>  <PUBCHEM_MONOISOTOPIC_WEIGHT>  (1) 
458.08491139

>  <PUBCHEM_TOTAL_CHARGE>  (1) 
0

>  <PUBCHEM_HEAVY_ATOM_COUNT>  (1) 
33

>  <PUBCHEM_ATOM_DEF_STEREO_COUNT>  (1) 
2

>  <PUBCHEM_ATOM_UDEF_STEREO_COUNT>  (1) 
0

>  <PUBCHEM_BOND_DEF_STEREO_COUNT>  (1) 
0

>  <PUBCHEM_BOND_UDEF_STEREO_COUNT>  (1) 
0

>  <PUBCHEM_ISOTOPIC_ATOM_COUNT>  (1) 
0

>  <PUBCHEM_COMPONENT_COUNT>  (1) 
1

>  <PUBCHEM_CACTVS_TAUTO_COUNT>  (1) 
-1

>  <PUBCHEM_COORDINATE_TYPE>  (1) 
1
5
255

>  <PUBCHEM_BONDANNOTATIONS>  (1) 
13  16  5
15  17  8
15  18  8
16  20  8
16  21  8
17  19  8
18  22  8
19  23  8
12  2  5
20  26  8
21  25  8
22  23  8
25  27  8
26  27  8
28  29  8
28  30  8
29  32  8
30  31  8
31  33  8
32  33  8

$$$$
