5281727
     RDKit          2D

 19 20  0  0  0  0  0  0  0  0999 V2000
    5.4641   -3.4050    0.0000 O   0  0  0  0  0  0  0  0  0  0  0  0
    2.0000   -3.4050    0.0000 O   0  0  0  0  0  0  0  0  0  0  0  0
    4.5981    4.0950    0.0000 O   0  0  0  0  0  0  0  0  0  0  0  0
    3.7320   -1.4050    0.0000 C   0  0  0  0  0  0  0  0  0  0  0  0
    2.8660   -1.9050    0.0000 C   0  0  0  0  0  0  0  0  0  0  0  0
    4.5981   -1.9050    0.0000 C   0  0  0  0  0  0  0  0  0  0  0  0
    4.5981   -2.9050    0.0000 C   0  0  0  0  0  0  0  0  0  0  0  0
    2.8660   -2.9050    0.0000 C   0  0  0  0  0  0  0  0  0  0  0  0
    3.7320   -0.4050    0.0000 C   0  0  0  0  0  0  0  0  0  0  0  0
    4.5981    1.0950    0.0000 C   0  0  0  0  0  0  0  0  0  0  0  0
    3.7320   -3.4050    0.0000 C   0  0  0  0  0  0  0  0  0  0  0  0
    4.5981    0.0950    0.0000 C   0  0  0  0  0  0  0  0  0  0  0  0
    3.7320    1.5950    0.0000 C   0  0  0  0  0  0  0  0  0  0  0  0
    5.4641    1.5950    0.0000 C   0  0  0  0  0  0  0  0  0  0  0  0
    3.7320    2.5950    0.0000 C   0  0  0  0  0  0  0  0  0  0  0  0
    5.4641    2.5950    0.0000 C   0  0  0  0  0  0  0  0  0  0  0  0
    4.5981    3.0950    0.0000 C   0  0  0  0  0  0  0  0  0  0  0  0
    5.4641   -4.4050    0.0000 C   0  0  0  0  0  0  0  0  0  0  0  0
    2.0000   -4.4050    0.0000 C   0  0  0  0  0  0  0  0  0  0  0  0
  1  7  1  0
  1 18  1  0
  2  8  1  0
  2 19  1  0
  3 17  1  0
  4  5  2  0
  4  6  1  0
  4  9  1  0
  5  8  1  0
  6  7  2  0
  7 11  1  0
  8 11  2  0
  9 12  2  0
 10 12  1  0
 10 13  2  0
 10 14  1  0
 13 15  1  0
 14 16  2  0
 15 17  2  0
 16 17  1  0
M  END
>  <PUBCHEM_COMPOUND_CID>  (1) 
5281727

>  <PUBCHEM_COMPOUND_CANONICALIZED>  (1) 
1

>  <PUBCHEM_CACTVS_COMPLEXITY>  (1) 
270

>  <PUBCHEM_CACTVS_HBOND_ACCEPTOR>  (1) 
3

>  <PUBCHEM_CACTVS_HBOND_DONOR>  (1) 
1

>  <PUBCHEM_CACTVS_ROTATABLE_BOND>  (1) 
4

>  <PUBCHEM_CACTVS_SUBSKEYS>  (1) 
AAADceB4MAAAAAAAAAAAAAAAAAAAAAAAAAAwYAAAAAAAAAABQAAAGgAACAAADASAmAIyBoAABgCAAiBCAAACCAAgIAAIiAAGCIgMJyKGMRqAcCAlwBUIuAeA4BwOIAABCAAAAABAAAIQAAAAAAAAAAAAAA==

>  <PUBCHEM_IUPAC_OPENEYE_NAME>  (1) 
4-[(E)-2-(3,5-dimethoxyphenyl)vinyl]phenol

>  <PUBCHEM_IUPAC_CAS_NAME>  (1) 
4-[(E)-2-(3,5-dimethoxyphenyl)ethenyl]phenol

>  <PUBCHEM_IUPAC_NAME_MARKUP>  (1) 
4-[(<I>E</I>)-2-(3,5-dimethoxyphenyl)ethenyl]phenol

>  <PUBCHEM_IUPAC_NAME>  (1) 
4-[(E)-2-(3,5-dimethoxyphenyl)ethenyl]phenol

>  <PUBCHEM_IUPAC_SYSTEMATIC_NAME>  (1) 
4-[(E)-2-(3,5-dimethoxyphenyl)ethenyl]phenol

>  <PUBCHEM_IUPAC_TRADITIONAL_NAME>  (1) 
4-[(E)-2-(3,5-dimethoxyphenyl)vinyl]phenol

>  <PUBCHEM_IUPAC_INCHI>  (1) 
InChI=1S/C16H16O3/c1-18-15-9-13(10-16(11-15)19-2)4-3-12-5-7-14(17)8-6-12/h3-11,17H,1-2H3/b4-3+

>  <PUBCHEM_IUPAC_INCHIKEY>  (1) 
VLEUZFDZJKSGMX-ONEGZZNKSA-N

>  <PUBCHEM_XLOGP3_AA>  (1) 
3.8

>  <PUBCHEM_EXACT_MASS>  (1) 
256.109944368

>  <PUBCHEM_MOLECULAR_FORMULA>  (1) 
C16H16O3

>  <PUBCHEM_MOLECULAR_WEIGHT>  (1) 
256.30

>  <PUBCHEM_OPENEYE_CAN_SMILES>  (1) 
COC1=CC(=CC(=C1)C=CC2=CC=C(C=C2)O)OC

>  <PUBCHEM_OPENEYE_ISO_SMILES>  (1) 
COC1=CC(=CC(=C1)/C=C/C2=CC=C(C=C2)O)OC

>  <PUBCHEM_CACTVS_TPSA>  (1) 
38.7

>  <PUBCHEM_MONOISOTOPIC_WEIGHT>  (1) 
256.109944368

>  <PUBCHEM_TOTAL_CHARGE>  (1) 
0

>  <PUBCHEM_HEAVY_ATOM_COUNT>  (1) 
19

>  <PUBCHEM_ATOM_DEF_STEREO_COUNT>  (1) 
0

>  <PUBCHEM_ATOM_UDEF_STEREO_COUNT>  (1) 
0

>  <PUBCHEM_BOND_DEF_STEREO_COUNT>  (1) 
1

>  <PUBCHEM_BOND_UDEF_STEREO_COUNT>  (1) 
0

>  <PUBCHEM_ISOTOPIC_ATOM_COUNT>  (1) 
0

>  <PUBCHEM_COMPONENT_COUNT>  (1) 
1

>  <PUBCHEM_CACTVS_TAUTO_COUNT>  (1) 
-1

>  <PUBCHEM_COORDINATE_TYPE>  (1) 
1
5
255

>  <PUBCHEM_BONDANNOTATIONS>  (1) 
10  13  8
10  14  8
13  15  8
14  16  8
15  17  8
16  17  8
4  5  8
4  6  8
5  8  8
6  7  8
7  11  8
8  11  8

$$$$
