11541511
     RDKit          2D

 41 46  0  0  1  0  0  0  0  0999 V2000
   11.3900    2.3583    0.0000 O   0  0  0  0  0  0  0  0  0  0  0  0
   13.9141    0.8485    0.0000 O   0  0  0  0  0  0  0  0  0  0  0  0
    6.0010    3.4314    0.0000 O   0  0  0  0  0  0  0  0  0  0  0  0
   13.5826   -2.2128    0.0000 O   0  0  0  0  0  0  0  0  0  0  0  0
    4.2690    3.4314    0.0000 O   0  0  0  0  0  0  0  0  0  0  0  0
   13.9207    2.5806    0.0000 O   0  0  0  0  0  0  0  0  0  0  0  0
   12.3199   -3.4702    0.0000 O   0  0  0  0  0  0  0  0  0  0  0  0
    4.2690    0.4314    0.0000 O   0  0  0  0  0  0  0  0  0  0  0  0
    2.5369    1.4314    0.0000 O   0  0  0  0  0  0  0  0  0  0  0  0
   11.3862    1.3583    0.0000 C   0  0  0  0  0  0  0  0  0  0  0  0
   10.5221    1.8616    0.0000 C   0  0  0  0  0  0  0  0  0  0  0  0
   11.3823    0.3583    0.0000 C   0  0  0  0  0  0  0  0  0  0  0  0
    9.6541    1.3649    0.0000 C   0  0  0  0  0  0  0  0  0  0  0  0
    8.7461    1.8753    0.0000 C   0  0  0  0  0  0  0  0  0  0  0  0
    8.7421    2.9169    0.0000 C   0  0  0  0  0  0  0  0  0  0  0  0
   12.3274    0.0499    0.0000 C   0  0  0  0  0  0  0  0  0  0  0  0
   10.5144   -0.1384    0.0000 C   0  0  0  0  0  0  0  0  0  0  0  0
    9.6503    0.3650    0.0000 C   0  0  0  0  0  0  0  0  0  0  0  0
   12.3336    1.6594    0.0000 C   0  0  0  0  0  0  0  0  0  0  0  0
   10.5422    2.9030    0.0000 C   0  0  0  0  0  0  0  0  0  0  0  0
   12.9141    0.8524    0.0000 C   0  0  0  0  0  0  0  0  0  0  0  0
    9.6462    3.4342    0.0000 C   0  0  0  0  0  0  0  0  0  0  0  0
    7.8171    1.3148    0.0000 C   0  0  0  0  0  0  0  0  0  0  0  0
   11.3785   -0.6417    0.0000 C   0  0  0  0  0  0  0  0  0  0  0  0
    7.8088    3.4702    0.0000 C   0  0  0  0  0  0  0  0  0  0  0  0
    8.7500    0.8753    0.0000 C   0  0  0  0  0  0  0  0  0  0  0  0
    6.8712    1.8464    0.0000 C   0  0  0  0  0  0  0  0  0  0  0  0
    6.8671    2.9314    0.0000 C   0  0  0  0  0  0  0  0  0  0  0  0
   12.6344   -0.9018    0.0000 C   0  0  0  0  0  0  0  0  0  0  0  0
   13.5847   -1.2128    0.0000 C   0  0  0  0  0  0  0  0  0  0  0  0
   12.0448   -1.7096    0.0000 C   0  0  0  0  0  0  0  0  0  0  0  0
   14.4174    1.7126    0.0000 C   0  0  0  0  0  0  0  0  0  0  0  0
   12.6309   -2.5198    0.0000 C   0  0  0  0  0  0  0  0  0  0  0  0
    5.1350    2.9314    0.0000 C   0  0  0  0  0  0  0  0  0  0  0  0
    5.1350    1.9314    0.0000 C   0  0  0  0  0  0  0  0  0  0  0  0
   15.4174    1.7088    0.0000 C   0  0  0  0  0  0  0  0  0  0  0  0
    4.2690    1.4314    0.0000 C   0  0  0  0  0  0  0  0  0  0  0  0
    3.4030    2.9314    0.0000 C   0  0  0  0  0  0  0  0  0  0  0  0
    3.4030    1.9314    0.0000 C   0  0  0  0  0  0  0  0  0  0  0  0
    2.5369    3.4314    0.0000 C   0  0  0  0  0  0  0  0  0  0  0  0
    3.4030   -0.0686    0.0000 C   0  0  0  0  0  0  0  0  0  0  0  0
 10  1  1  6
 21  2  1  6
  2 32  1  0
 28  3  1  6
 34  3  1  1
  4 30  1  0
  4 33  1  0
  5 34  1  0
  5 38  1  0
  6 32  2  0
  7 33  2  0
 37  8  1  6
  8 41  1  0
 39  9  1  1
 10 11  1  0
 10 12  1  0
 10 19  1  0
 11 13  1  0
 11 20  1  1
 12 16  1  0
 12 17  1  0
 12 24  1  6
 13 14  1  0
 13 18  1  6
 14 15  1  0
 14 23  1  0
 14 26  1  6
 15 22  1  1
 15 25  1  0
 16 21  1  0
 16 29  1  6
 17 18  1  0
 19 21  1  0
 20 22  1  0
 23 27  1  0
 25 28  1  0
 27 28  1  0
 29 30  1  0
 29 31  2  0
 31 33  1  0
 32 36  1  0
 34 35  1  0
 35 37  1  0
 37 39  1  0
 38 39  1  0
 38 40  1  6
M  END
>  <PUBCHEM_COMPOUND_CID>  (1) 
11541511

>  <PUBCHEM_COMPOUND_CANONICALIZED>  (1) 
1

>  <PUBCHEM_CACTVS_COMPLEXITY>  (1) 
1080

>  <PUBCHEM_CACTVS_HBOND_ACCEPTOR>  (1) 
9

>  <PUBCHEM_CACTVS_HBOND_DONOR>  (1) 
2

>  <PUBCHEM_CACTVS_ROTATABLE_BOND>  (1) 
6

>  <PUBCHEM_CACTVS_SUBSKEYS>  (1) 
AAADcfB8PAAAAAAAAAAAAAAAAAAAAYIAAAA0YMEAAAAAAGDAAAAAGgAACAAAD1SwgAMCCAAABgCIAiDSCAAAAAAgAAAACAAAAEgRFAIAIQAiUAAFwAAPIQPA4PwPgAAAAAAAAADAAAYAADAAAYQADAAAAA==

>  <PUBCHEM_IUPAC_OPENEYE_NAME>  (1) 
[(3S,5R,8R,9S,10S,13R,14S,16S,17R)-14-hydroxy-3-[(2R,4S,5S,6S)-5-hydroxy-4-methoxy-6-methyl-tetrahydropyran-2-yl]oxy-10,13-dimethyl-17-(5-oxo-2H-furan-3-yl)-1,2,3,4,5,6,7,8,9,11,12,15,16,17-tetradecahydrocyclopenta[a]phenanthren-16-yl] acetate

>  <PUBCHEM_IUPAC_CAS_NAME>  (1) 
acetic acid [(3S,5R,8R,9S,10S,13R,14S,16S,17R)-14-hydroxy-3-[[(2R,4S,5S,6S)-5-hydroxy-4-methoxy-6-methyl-2-oxanyl]oxy]-10,13-dimethyl-17-(5-oxo-2H-furan-3-yl)-1,2,3,4,5,6,7,8,9,11,12,15,16,17-tetradecahydrocyclopenta[a]phenanthren-16-yl] ester

>  <PUBCHEM_IUPAC_NAME_MARKUP>  (1) 
[(3<I>S</I>,5<I>R</I>,8<I>R</I>,9<I>S</I>,10<I>S</I>,13<I>R</I>,14<I>S</I>,16<I>S</I>,17<I>R</I>)-14-hydroxy-3-[(2<I>R</I>,4<I>S</I>,5<I>S</I>,6<I>S</I>)-5-hydroxy-4-methoxy-6-methyloxan-2-yl]oxy-10,13-dimethyl-17-(5-oxo-2<I>H</I>-furan-3-yl)-1,2,3,4,5,6,7,8,9,11,12,15,16,17-tetradecahydrocyclopenta[a]phenanthren-16-yl] acetate

>  <PUBCHEM_IUPAC_NAME>  (1) 
[(3S,5R,8R,9S,10S,13R,14S,16S,17R)-14-hydroxy-3-[(2R,4S,5S,6S)-5-hydroxy-4-methoxy-6-methyloxan-2-yl]oxy-10,13-dimethyl-17-(5-oxo-2H-furan-3-yl)-1,2,3,4,5,6,7,8,9,11,12,15,16,17-tetradecahydrocyclopenta[a]phenanthren-16-yl] acetate

>  <PUBCHEM_IUPAC_SYSTEMATIC_NAME>  (1) 
[(3S,5R,8R,9S,10S,13R,14S,16S,17R)-3-[(2R,4S,5S,6S)-4-methoxy-6-methyl-5-oxidanyl-oxan-2-yl]oxy-10,13-dimethyl-14-oxidanyl-17-(5-oxidanylidene-2H-furan-3-yl)-1,2,3,4,5,6,7,8,9,11,12,15,16,17-tetradecahydrocyclopenta[a]phenanthren-16-yl] ethanoate

>  <PUBCHEM_IUPAC_TRADITIONAL_NAME>  (1) 
acetic acid [(3S,5R,8R,9S,10S,13R,14S,16S,17R)-14-hydroxy-3-[(2R,4S,5S,6S)-5-hydroxy-4-methoxy-6-methyl-tetrahydropyran-2-yl]oxy-17-(5-keto-2H-furan-3-yl)-10,13-dimethyl-1,2,3,4,5,6,7,8,9,11,12,15,16,17-tetradecahydrocyclopenta[a]phenanthren-16-yl] ester

>  <PUBCHEM_IUPAC_INCHI>  (1) 
InChI=1S/C32H48O9/c1-17-29(35)24(37-5)14-27(39-17)41-21-8-10-30(3)20(13-21)6-7-23-22(30)9-11-31(4)28(19-12-26(34)38-16-19)25(40-18(2)33)15-32(23,31)36/h12,17,20-25,27-29,35-36H,6-11,13-16H2,1-5H3/t17-,20+,21-,22-,23+,24-,25-,27-,28-,29-,30-,31+,32-/m0/s1

>  <PUBCHEM_IUPAC_INCHIKEY>  (1) 
JLPDBLFIVFSOCC-XYXFTTADSA-N

>  <PUBCHEM_XLOGP3>  (1) 
2.4

>  <PUBCHEM_EXACT_MASS>  (1) 
576.32983310

>  <PUBCHEM_MOLECULAR_FORMULA>  (1) 
C32H48O9

>  <PUBCHEM_MOLECULAR_WEIGHT>  (1) 
576.7

>  <PUBCHEM_OPENEYE_CAN_SMILES>  (1) 
CC1C(C(CC(O1)OC2CCC3(C(C2)CCC4C3CCC5(C4(CC(C5C6=CC(=O)OC6)OC(=O)C)O)C)C)OC)O

>  <PUBCHEM_OPENEYE_ISO_SMILES>  (1) 
C[C@H]1[C@@H]([C@H](C[C@@H](O1)O[C@H]2CC[C@]3([C@@H](C2)CC[C@@H]4[C@@H]3CC[C@]5([C@@]4(C[C@@H]([C@@H]5C6=CC(=O)OC6)OC(=O)C)O)C)C)OC)O

>  <PUBCHEM_CACTVS_TPSA>  (1) 
121

>  <PUBCHEM_MONOISOTOPIC_WEIGHT>  (1) 
576.32983310

>  <PUBCHEM_TOTAL_CHARGE>  (1) 
0

>  <PUBCHEM_HEAVY_ATOM_COUNT>  (1) 
41

>  <PUBCHEM_ATOM_DEF_STEREO_COUNT>  (1) 
13

>  <PUBCHEM_ATOM_UDEF_STEREO_COUNT>  (1) 
0

>  <PUBCHEM_BOND_DEF_STEREO_COUNT>  (1) 
0

>  <PUBCHEM_BOND_UDEF_STEREO_COUNT>  (1) 
0

>  <PUBCHEM_ISOTOPIC_ATOM_COUNT>  (1) 
0

>  <PUBCHEM_COMPONENT_COUNT>  (1) 
1

>  <PUBCHEM_CACTVS_TAUTO_COUNT>  (1) 
-1

>  <PUBCHEM_COORDINATE_TYPE>  (1) 
1
5
255

>  <PUBCHEM_BONDANNOTATIONS>  (1) 
10  1  6
11  42  6
12  24  6
13  43  5
14  26  6
15  44  6
16  29  6
21  2  6
28  3  6
34  3  5
38  40  6
37  8  6
39  9  5

$$$$
