9812534
     RDKit          2D

 79 82  0  0  1  0  0  0  0  0999 V2000
   10.5713   -2.7226    0.0000 O   0  0  0  0  0  0  0  0  0  0  0  0
    9.3237   -2.4124    0.0000 O   0  0  0  0  0  0  0  0  0  0  0  0
    8.0915    1.4536    0.0000 O   0  0  0  0  0  0  0  0  0  0  0  0
    5.1635    2.2758    0.0000 O   0  0  0  0  0  0  0  0  0  0  0  0
   11.8801   -1.1773    0.0000 O   0  0  0  0  0  0  0  0  0  0  0  0
   13.7110   -1.9265    0.0000 O   0  0  0  0  0  0  0  0  0  0  0  0
    7.7760    2.6942    0.0000 O   0  0  0  0  0  0  0  0  0  0  0  0
    7.2255   -0.0464    0.0000 O   0  0  0  0  0  0  0  0  0  0  0  0
    3.8542    2.6515    0.0000 O   0  0  0  0  0  0  0  0  0  0  0  0
   11.1896    2.8197    0.0000 O   0  0  0  0  0  0  0  0  0  0  0  0
    9.5380   -3.2408    0.0000 O   0  0  0  0  0  0  0  0  0  0  0  0
   12.4207   -3.2987    0.0000 O   0  0  0  0  0  0  0  0  0  0  0  0
   14.9358   -0.7018    0.0000 O   0  0  0  0  0  0  0  0  0  0  0  0
    2.6490    5.0068    0.0000 O   0  0  0  0  0  0  0  0  0  0  0  0
    9.4576    4.8197    0.0000 O   0  0  0  0  0  0  0  0  0  0  0  0
   11.5556   -1.5464    0.0000 N   0  0  0  0  0  0  0  0  0  0  0  0
    8.9576   -1.0464    0.0000 N   0  0  0  0  0  0  0  0  0  0  0  0
    4.5033    4.2573    0.0000 N   0  0  0  0  0  0  0  0  0  0  0  0
    6.7911    2.8679    0.0000 N   0  0  0  0  0  0  0  0  0  0  0  0
   11.0380   -4.1068    0.0000 N   0  0  0  0  0  0  0  0  0  0  0  0
   11.5556    1.4536    0.0000 N   0  0  0  0  0  0  0  0  0  0  0  0
    8.8839    1.1115    0.0000 N   0  0  0  0  0  0  0  0  0  0  0  0
   10.6896   -1.0464    0.0000 C   0  0  0  0  0  0  0  0  0  0  0  0
   10.7825    0.4486    0.0000 C   0  0  0  0  0  0  0  0  0  0  0  0
   12.2626    0.6781    0.0000 C   0  0  0  0  0  0  0  0  0  0  0  0
   12.8038   -0.7185    0.0000 C   0  0  0  0  0  0  0  0  0  0  0  0
   11.5556   -2.5464    0.0000 C   0  0  0  0  0  0  0  0  0  0  0  0
    9.8236   -1.5464    0.0000 C   0  0  0  0  0  0  0  0  0  0  0  0
   11.9040   -3.6068    0.0000 C   0  0  0  0  0  0  0  0  0  0  0  0
    5.4645    3.9815    0.0000 C   0  0  0  0  0  0  0  0  0  0  0  0
    6.0238    4.8104    0.0000 C   0  0  0  0  0  0  0  0  0  0  0  0
    5.4082    5.5985    0.0000 C   0  0  0  0  0  0  0  0  0  0  0  0
   12.8120   -4.0259    0.0000 C   0  0  0  0  0  0  0  0  0  0  0  0
    4.4685    5.2566    0.0000 C   0  0  0  0  0  0  0  0  0  0  0  0
    8.9576   -0.0464    0.0000 C   0  0  0  0  0  0  0  0  0  0  0  0
    7.1331    1.9282    0.0000 C   0  0  0  0  0  0  0  0  0  0  0  0
    5.8064    3.0418    0.0000 C   0  0  0  0  0  0  0  0  0  0  0  0
   11.5556    0.4536    0.0000 C   0  0  0  0  0  0  0  0  0  0  0  0
   12.9031   -5.0217    0.0000 C   0  0  0  0  0  0  0  0  0  0  0  0
   10.6318    0.0709    0.0000 C   0  0  0  0  0  0  0  0  0  0  0  0
    6.1482    1.7547    0.0000 C   0  0  0  0  0  0  0  0  0  0  0  0
    9.8236    1.4536    0.0000 C   0  0  0  0  0  0  0  0  0  0  0  0
   12.2627   -0.2535    0.0000 C   0  0  0  0  0  0  0  0  0  0  0  0
    8.9576    1.9536    0.0000 C   0  0  0  0  0  0  0  0  0  0  0  0
    9.4576    0.8197    0.0000 C   0  0  0  0  0  0  0  0  0  0  0  0
    5.8061    0.8151    0.0000 C   0  0  0  0  0  0  0  0  0  0  0  0
    8.1178    1.7544    0.0000 C   0  0  0  0  0  0  0  0  0  0  0  0
    8.0915   -1.5464    0.0000 C   0  0  0  0  0  0  0  0  0  0  0  0
    8.0915    0.4536    0.0000 C   0  0  0  0  0  0  0  0  0  0  0  0
    3.7152    3.6417    0.0000 C   0  0  0  0  0  0  0  0  0  0  0  0
   10.6896    1.9536    0.0000 C   0  0  0  0  0  0  0  0  0  0  0  0
   10.0231   -0.7225    0.0000 C   0  0  0  0  0  0  0  0  0  0  0  0
   10.5380   -3.2408    0.0000 C   0  0  0  0  0  0  0  0  0  0  0  0
   13.8110   -5.4408    0.0000 C   0  0  0  0  0  0  0  0  0  0  0  0
   12.0862   -5.5985    0.0000 C   0  0  0  0  0  0  0  0  0  0  0  0
    7.4341    3.6339    0.0000 C   0  0  0  0  0  0  0  0  0  0  0  0
   13.2627   -0.2535    0.0000 C   0  0  0  0  0  0  0  0  0  0  0  0
   11.0380   -2.3748    0.0000 C   0  0  0  0  0  0  0  0  0  0  0  0
   10.2491    0.9948    0.0000 C   0  0  0  0  0  0  0  0  0  0  0  0
    9.4576    1.8197    0.0000 C   0  0  0  0  0  0  0  0  0  0  0  0
   12.7451   -1.6677    0.0000 C   0  0  0  0  0  0  0  0  0  0  0  0
    9.4576    2.8197    0.0000 C   0  0  0  0  0  0  0  0  0  0  0  0
    4.8213    0.6415    0.0000 C   0  0  0  0  0  0  0  0  0  0  0  0
    6.4487    0.0489    0.0000 C   0  0  0  0  0  0  0  0  0  0  0  0
   12.0380   -2.3748    0.0000 C   0  0  0  0  0  0  0  0  0  0  0  0
    8.8828   -0.5723    0.0000 C   0  0  0  0  0  0  0  0  0  0  0  0
   12.3225   -0.7614    0.0000 C   0  0  0  0  0  0  0  0  0  0  0  0
   13.9698   -0.9606    0.0000 C   0  0  0  0  0  0  0  0  0  0  0  0
    2.7881    4.0165    0.0000 C   0  0  0  0  0  0  0  0  0  0  0  0
   10.0532   -2.2012    0.0000 C   0  0  0  0  0  0  0  0  0  0  0  0
    8.5915    2.3197    0.0000 C   0  0  0  0  0  0  0  0  0  0  0  0
   10.3236    2.3197    0.0000 C   0  0  0  0  0  0  0  0  0  0  0  0
   11.3263   -0.6742    0.0000 C   0  0  0  0  0  0  0  0  0  0  0  0
   12.8085    0.2809    0.0000 C   0  0  0  0  0  0  0  0  0  0  0  0
    2.0000    3.4010    0.0000 C   0  0  0  0  0  0  0  0  0  0  0  0
    8.5915    3.3197    0.0000 C   0  0  0  0  0  0  0  0  0  0  0  0
   10.3236    3.3197    0.0000 C   0  0  0  0  0  0  0  0  0  0  0  0
    9.4576    3.8197    0.0000 C   0  0  0  0  0  0  0  0  0  0  0  0
   10.3236    5.3197    0.0000 C   0  0  0  0  0  0  0  0  0  0  0  0
  1 27  2  0
  2 28  2  0
  3 44  1  0
  3 49  1  0
  4 37  2  0
 43  5  1  6
  6 61  1  0
  6 68  1  0
  7 47  2  0
  8 49  2  0
  9 50  2  0
 10 51  2  0
 11 53  2  0
 12 65  2  0
 13 68  2  0
 14 69  2  0
 15 78  1  0
 15 79  1  0
 16 23  1  0
 16 26  1  0
 16 27  1  0
 17 28  1  0
 17 35  1  0
 17 48  1  0
 18 30  1  0
 18 34  1  0
 18 50  1  0
 36 19  1  0
 19 37  1  0
 19 56  1  0
 20 29  1  0
 20 53  1  0
 38 21  1  1
 21 51  1  0
 42 22  1  1
 22 47  1  0
 23 24  1  6
 23 28  1  0
 24 25  1  0
 25 26  1  0
 27 29  1  0
 29 33  1  6
 30 31  1  0
 30 37  1  1
 31 32  1  0
 32 34  1  0
 33 39  1  0
 35 45  1  6
 35 49  1  0
 36 41  1  1
 36 47  1  0
 38 40  1  0
 38 43  1  0
 39 54  1  0
 39 55  1  0
 40 52  1  0
 40 59  1  6
 41 46  1  0
 42 44  1  0
 42 51  1  0
 43 57  1  0
 44 62  1  6
 45 60  1  0
 46 63  1  0
 46 64  1  0
 50 69  1  0
 52 66  1  0
 53 58  1  0
 57 68  1  0
 58 65  1  0
 58 70  1  1
 60 71  2  0
 60 72  1  0
 61 65  1  0
 61 67  1  6
 67 73  1  0
 67 74  1  0
 69 75  1  0
 71 76  1  0
 72 77  2  0
 76 78  2  0
 77 78  1  0
M  END
>  <PUBCHEM_COMPOUND_CID>  (1) 
9812534

>  <PUBCHEM_COMPOUND_CANONICALIZED>  (1) 
1

>  <PUBCHEM_CACTVS_COMPLEXITY>  (1) 
2200

>  <PUBCHEM_CACTVS_HBOND_ACCEPTOR>  (1) 
15

>  <PUBCHEM_CACTVS_HBOND_DONOR>  (1) 
4

>  <PUBCHEM_CACTVS_ROTATABLE_BOND>  (1) 
15

>  <PUBCHEM_CACTVS_SUBSKEYS>  (1) 
AAADcfB/vAAAAAAAAAAAAAAAAAAAAWLAAAAwAAAAAAAAAAABAAAAHgAQCAAADTzhmAYyDoPABgCIAqHSGAICCAAgIAAIiIHOCIgOdj6MsT+XcCAn9hGYqAe+ybCOIAAAAAAAAABAAAAAAAAAAAAAAAAAAA==

>  <PUBCHEM_IUPAC_OPENEYE_NAME>  (1) 
(2S)-N-[(1R)-1-[[(3S,6S,8S,12S,13R,16S,17R,20S,23S)-12-hydroxy-3-isobutyl-8-isopropyl-20-[(4-methoxyphenyl)methyl]-6,17,21-trimethyl-13-[(1S)-1-methylpropyl]-2,5,7,10,15,19,22-heptaoxo-9,18-dioxa-1,4,14,21-tetrazabicyclo[21.3.0]hexacosan-16-yl]carbamoyl]-3-methyl-butyl]-N-methyl-1-(2-oxopropanoyl)pyrrolidine-2-carboxamide

>  <PUBCHEM_IUPAC_CAS_NAME>  (1) 
(2S)-N-[(2R)-1-[[(3S,6S,8S,12S,13R,16S,17R,20S,23S)-13-[(2S)-butan-2-yl]-12-hydroxy-20-[(4-methoxyphenyl)methyl]-6,17,21-trimethyl-3-(2-methylpropyl)-2,5,7,10,15,19,22-heptaoxo-8-propan-2-yl-9,18-dioxa-1,4,14,21-tetrazabicyclo[21.3.0]hexacosan-16-yl]amino]-4-methyl-1-oxopentan-2-yl]-1-(1,2-dioxopropyl)-N-methyl-2-pyrrolidinecarboxamide

>  <PUBCHEM_IUPAC_NAME_MARKUP>  (1) 
(2<I>S</I>)-<I>N</I>-[(2<I>R</I>)-1-[[(3<I>S</I>,6<I>S</I>,8<I>S</I>,12<I>S</I>,13<I>R</I>,16<I>S</I>,17<I>R</I>,20<I>S</I>,23<I>S</I>)-13-[(2<I>S</I>)-butan-2-yl]-12-hydroxy-20-[(4-methoxyphenyl)methyl]-6,17,21-trimethyl-3-(2-methylpropyl)-2,5,7,10,15,19,22-heptaoxo-8-propan-2-yl-9,18-dioxa-1,4,14,21-tetrazabicyclo[21.3.0]hexacosan-16-yl]amino]-4-methyl-1-oxopentan-2-yl]-<I>N</I>-methyl-1-(2-oxopropanoyl)pyrrolidine-2-carboxamide

>  <PUBCHEM_IUPAC_NAME>  (1) 
(2S)-N-[(2R)-1-[[(3S,6S,8S,12S,13R,16S,17R,20S,23S)-13-[(2S)-butan-2-yl]-12-hydroxy-20-[(4-methoxyphenyl)methyl]-6,17,21-trimethyl-3-(2-methylpropyl)-2,5,7,10,15,19,22-heptaoxo-8-propan-2-yl-9,18-dioxa-1,4,14,21-tetrazabicyclo[21.3.0]hexacosan-16-yl]amino]-4-methyl-1-oxopentan-2-yl]-N-methyl-1-(2-oxopropanoyl)pyrrolidine-2-carboxamide

>  <PUBCHEM_IUPAC_SYSTEMATIC_NAME>  (1) 
(2S)-N-[(2R)-1-[[(3S,6S,8S,12S,13R,16S,17R,20S,23S)-13-[(2S)-butan-2-yl]-20-[(4-methoxyphenyl)methyl]-6,17,21-trimethyl-3-(2-methylpropyl)-12-oxidanyl-2,5,7,10,15,19,22-heptakis(oxidanylidene)-8-propan-2-yl-9,18-dioxa-1,4,14,21-tetrazabicyclo[21.3.0]hexacosan-16-yl]amino]-4-methyl-1-oxidanylidene-pentan-2-yl]-N-methyl-1-(2-oxidanylidenepropanoyl)pyrrolidine-2-carboxamide

>  <PUBCHEM_IUPAC_TRADITIONAL_NAME>  (1) 
(2S)-N-[(1R)-1-[[(3S,6S,8S,12S,13R,16S,17R,20S,23S)-12-hydroxy-3-isobutyl-8-isopropyl-2,5,7,10,15,19,22-heptaketo-6,17,21-trimethyl-13-[(1S)-1-methylpropyl]-20-p-anisyl-9,18-dioxa-1,4,14,21-tetrazabicyclo[21.3.0]hexacosan-16-yl]carbamoyl]-3-methyl-butyl]-N-methyl-1-pyruvoyl-pyrrolidine-2-carboxamide

>  <PUBCHEM_IUPAC_INCHI>  (1) 
InChI=1S/C57H87N7O15/c1-15-33(8)46-44(66)29-45(67)79-49(32(6)7)48(68)34(9)50(69)58-39(26-30(2)3)54(73)64-25-17-19-41(64)56(75)62(13)43(28-37-20-22-38(77-14)23-21-37)57(76)78-36(11)47(52(71)59-46)60-51(70)42(27-31(4)5)61(12)55(74)40-18-16-24-63(40)53(72)35(10)65/h20-23,30-34,36,39-44,46-47,49,66H,15-19,24-29H2,1-14H3,(H,58,69)(H,59,71)(H,60,70)/t33-,34-,36+,39-,40-,41-,42+,43-,44-,46+,47-,49-/m0/s1

>  <PUBCHEM_IUPAC_INCHIKEY>  (1) 
UUSZLLQJYRSZIS-LXNNNBEUSA-N

>  <PUBCHEM_XLOGP3_AA>  (1) 
5.7

>  <PUBCHEM_EXACT_MASS>  (1) 
1109.62601509

>  <PUBCHEM_MOLECULAR_FORMULA>  (1) 
C57H87N7O15

>  <PUBCHEM_MOLECULAR_WEIGHT>  (1) 
1110.3

>  <PUBCHEM_OPENEYE_CAN_SMILES>  (1) 
CCC(C)C1C(CC(=O)OC(C(=O)C(C(=O)NC(C(=O)N2CCCC2C(=O)N(C(C(=O)OC(C(C(=O)N1)NC(=O)C(CC(C)C)N(C)C(=O)C3CCCN3C(=O)C(=O)C)C)CC4=CC=C(C=C4)OC)C)CC(C)C)C)C(C)C)O

>  <PUBCHEM_OPENEYE_ISO_SMILES>  (1) 
CC[C@H](C)[C@@H]1[C@H](CC(=O)O[C@H](C(=O)[C@@H](C(=O)N[C@H](C(=O)N2CCC[C@H]2C(=O)N([C@H](C(=O)O[C@@H]([C@@H](C(=O)N1)NC(=O)[C@@H](CC(C)C)N(C)C(=O)[C@@H]3CCCN3C(=O)C(=O)C)C)CC4=CC=C(C=C4)OC)C)CC(C)C)C)C(C)C)O

>  <PUBCHEM_CACTVS_TPSA>  (1) 
285

>  <PUBCHEM_MONOISOTOPIC_WEIGHT>  (1) 
1109.62601509

>  <PUBCHEM_TOTAL_CHARGE>  (1) 
0

>  <PUBCHEM_HEAVY_ATOM_COUNT>  (1) 
79

>  <PUBCHEM_ATOM_DEF_STEREO_COUNT>  (1) 
12

>  <PUBCHEM_ATOM_UDEF_STEREO_COUNT>  (1) 
0

>  <PUBCHEM_BOND_DEF_STEREO_COUNT>  (1) 
0

>  <PUBCHEM_BOND_UDEF_STEREO_COUNT>  (1) 
0

>  <PUBCHEM_ISOTOPIC_ATOM_COUNT>  (1) 
0

>  <PUBCHEM_COMPONENT_COUNT>  (1) 
1

>  <PUBCHEM_CACTVS_TAUTO_COUNT>  (1) 
-1

>  <PUBCHEM_COORDINATE_TYPE>  (1) 
1
5
255

>  <PUBCHEM_BONDANNOTATIONS>  (1) 
36  19  5
42  22  5
23  80  5
29  33  6
30  37  5
35  45  6
38  99  6
40  59  6
44  62  6
43  5  6
58  70  5
60  71  8
60  72  8
61  67  6
71  76  8
72  77  8
76  78  8
77  78  8

$$$$
