5318569
     RDKit          2D

 42 47  0  0  0  0  0  0  0  0999 V2000
    6.3580    2.0010    0.0000 O   0  0  0  0  0  0  0  0  0  0  0  0
    6.3301   -1.9643    0.0000 O   0  0  0  0  0  0  0  0  0  0  0  0
    2.8660    1.0357    0.0000 O   0  0  0  0  0  0  0  0  0  0  0  0
    2.8660    2.0357    0.0000 O   0  0  0  0  0  0  0  0  0  0  0  0
    4.5981    5.0357    0.0000 O   0  0  0  0  0  0  0  0  0  0  0  0
    6.3465    5.0702    0.0000 O   0  0  0  0  0  0  0  0  0  0  0  0
    8.9282   -0.4643    0.0000 O   0  0  0  0  0  0  0  0  0  0  0  0
    9.8324   -1.9612    0.0000 O   0  0  0  0  0  0  0  0  0  0  0  0
    8.0743   -5.0336    0.0000 O   0  0  0  0  0  0  0  0  0  0  0  0
   10.7205    0.5015    0.0000 O   0  0  0  0  0  0  0  0  0  0  0  0
    4.5981    2.0357    0.0000 C   0  0  0  0  0  0  0  0  0  0  0  0
    4.5981    1.0357    0.0000 C   0  0  0  0  0  0  0  0  0  0  0  0
    5.4641    2.5357    0.0000 C   0  0  0  0  0  0  0  0  0  0  0  0
    5.4641    3.5357    0.0000 C   0  0  0  0  0  0  0  0  0  0  0  0
    5.4641   -0.4643    0.0000 C   0  0  0  0  0  0  0  0  0  0  0  0
    5.4641    0.5357    0.0000 C   0  0  0  0  0  0  0  0  0  0  0  0
    3.7320    2.5357    0.0000 C   0  0  0  0  0  0  0  0  0  0  0  0
    3.7320    0.5357    0.0000 C   0  0  0  0  0  0  0  0  0  0  0  0
    4.5981    4.0357    0.0000 C   0  0  0  0  0  0  0  0  0  0  0  0
    6.3301   -0.9643    0.0000 C   0  0  0  0  0  0  0  0  0  0  0  0
    3.7320    3.5357    0.0000 C   0  0  0  0  0  0  0  0  0  0  0  0
    7.2641    2.5148    0.0000 C   0  0  0  0  0  0  0  0  0  0  0  0
    6.3580    4.0703    0.0000 C   0  0  0  0  0  0  0  0  0  0  0  0
    4.5981   -0.9643    0.0000 C   0  0  0  0  0  0  0  0  0  0  0  0
    3.7320   -0.4643    0.0000 C   0  0  0  0  0  0  0  0  0  0  0  0
    7.2641    3.5565    0.0000 C   0  0  0  0  0  0  0  0  0  0  0  0
    8.1282    2.0115    0.0000 C   0  0  0  0  0  0  0  0  0  0  0  0
    8.0622   -1.9643    0.0000 C   0  0  0  0  0  0  0  0  0  0  0  0
    7.1962   -2.4643    0.0000 C   0  0  0  0  0  0  0  0  0  0  0  0
    7.1962   -0.4643    0.0000 C   0  0  0  0  0  0  0  0  0  0  0  0
    8.0622   -0.9643    0.0000 C   0  0  0  0  0  0  0  0  0  0  0  0
    8.9722   -2.4712    0.0000 C   0  0  0  0  0  0  0  0  0  0  0  0
    7.1801   -3.5058    0.0000 C   0  0  0  0  0  0  0  0  0  0  0  0
    8.1244    1.0115    0.0000 C   0  0  0  0  0  0  0  0  0  0  0  0
    8.9962    2.5082    0.0000 C   0  0  0  0  0  0  0  0  0  0  0  0
    8.0781   -4.0336    0.0000 C   0  0  0  0  0  0  0  0  0  0  0  0
    8.9802   -3.5128    0.0000 C   0  0  0  0  0  0  0  0  0  0  0  0
    8.9884    0.5082    0.0000 C   0  0  0  0  0  0  0  0  0  0  0  0
    9.8602    2.0048    0.0000 C   0  0  0  0  0  0  0  0  0  0  0  0
    9.8564    1.0048    0.0000 C   0  0  0  0  0  0  0  0  0  0  0  0
    2.0000    0.5357    0.0000 C   0  0  0  0  0  0  0  0  0  0  0  0
   11.5884    0.9982    0.0000 C   0  0  0  0  0  0  0  0  0  0  0  0
  1 13  1  0
  1 22  1  0
  2 20  1  0
  2 29  1  0
  3 18  1  0
  3 41  1  0
  4 17  1  0
  5 19  1  0
  6 23  2  0
  7 31  2  0
  8 32  1  0
  9 36  1  0
 10 40  1  0
 10 42  1  0
 11 12  1  0
 11 13  2  0
 11 17  1  0
 12 16  2  0
 12 18  1  0
 13 14  1  0
 14 19  2  0
 14 23  1  0
 15 16  1  0
 15 20  1  0
 15 24  2  0
 17 21  2  0
 18 25  2  0
 19 21  1  0
 20 30  2  0
 22 26  2  0
 22 27  1  0
 23 26  1  0
 24 25  1  0
 27 34  2  0
 27 35  1  0
 28 29  2  0
 28 31  1  0
 28 32  1  0
 29 33  1  0
 30 31  1  0
 32 37  2  0
 33 36  2  0
 34 38  1  0
 35 39  2  0
 36 37  1  0
 38 40  2  0
 39 40  1  0
M  END
>  <PUBCHEM_COMPOUND_CID>  (1) 
5318569

>  <PUBCHEM_COMPOUND_CANONICALIZED>  (1) 
1

>  <PUBCHEM_CACTVS_COMPLEXITY>  (1) 
1080

>  <PUBCHEM_CACTVS_HBOND_ACCEPTOR>  (1) 
10

>  <PUBCHEM_CACTVS_HBOND_DONOR>  (1) 
4

>  <PUBCHEM_CACTVS_ROTATABLE_BOND>  (1) 
5

>  <PUBCHEM_CACTVS_SUBSKEYS>  (1) 
AAADceB8PAAAAAAAAAAAAAAAAAAAAAAAAAAwYMGCAAAAAACBVAAAGgAACAAADASAmAIyBoAABgCIAqBSAAACCAAkIAAIiAEGCMgMJzaGNRqCeWCl4BUIuQfI7PzOoAACCAAIAABAAAQQABAAAAAAAAAAAA==

>  <PUBCHEM_IUPAC_OPENEYE_NAME>  (1) 
8-[5-(5,7-dihydroxy-4-oxo-chromen-2-yl)-2-methoxy-phenyl]-5,7-dihydroxy-2-(4-methoxyphenyl)chromen-4-one

>  <PUBCHEM_IUPAC_CAS_NAME>  (1) 
8-[5-(5,7-dihydroxy-4-oxo-1-benzopyran-2-yl)-2-methoxyphenyl]-5,7-dihydroxy-2-(4-methoxyphenyl)-1-benzopyran-4-one

>  <PUBCHEM_IUPAC_NAME_MARKUP>  (1) 
8-[5-(5,7-dihydroxy-4-oxochromen-2-yl)-2-methoxyphenyl]-5,7-dihydroxy-2-(4-methoxyphenyl)chromen-4-one

>  <PUBCHEM_IUPAC_NAME>  (1) 
8-[5-(5,7-dihydroxy-4-oxochromen-2-yl)-2-methoxyphenyl]-5,7-dihydroxy-2-(4-methoxyphenyl)chromen-4-one

>  <PUBCHEM_IUPAC_SYSTEMATIC_NAME>  (1) 
8-[5-[5,7-bis(oxidanyl)-4-oxidanylidene-chromen-2-yl]-2-methoxy-phenyl]-2-(4-methoxyphenyl)-5,7-bis(oxidanyl)chromen-4-one

>  <PUBCHEM_IUPAC_TRADITIONAL_NAME>  (1) 
8-[5-(5,7-dihydroxy-4-keto-chromen-2-yl)-2-methoxy-phenyl]-5,7-dihydroxy-2-(4-methoxyphenyl)chromone

>  <PUBCHEM_IUPAC_INCHI>  (1) 
InChI=1S/C32H22O10/c1-39-18-6-3-15(4-7-18)26-14-24(38)31-22(36)12-21(35)29(32(31)42-26)19-9-16(5-8-25(19)40-2)27-13-23(37)30-20(34)10-17(33)11-28(30)41-27/h3-14,33-36H,1-2H3

>  <PUBCHEM_IUPAC_INCHIKEY>  (1) 
HUOOMAOYXQFIDQ-UHFFFAOYSA-N

>  <PUBCHEM_XLOGP3_AA>  (1) 
5.7

>  <PUBCHEM_EXACT_MASS>  (1) 
566.12129689

>  <PUBCHEM_MOLECULAR_FORMULA>  (1) 
C32H22O10

>  <PUBCHEM_MOLECULAR_WEIGHT>  (1) 
566.5

>  <PUBCHEM_OPENEYE_CAN_SMILES>  (1) 
COC1=CC=C(C=C1)C2=CC(=O)C3=C(O2)C(=C(C=C3O)O)C4=C(C=CC(=C4)C5=CC(=O)C6=C(C=C(C=C6O5)O)O)OC

>  <PUBCHEM_OPENEYE_ISO_SMILES>  (1) 
COC1=CC=C(C=C1)C2=CC(=O)C3=C(O2)C(=C(C=C3O)O)C4=C(C=CC(=C4)C5=CC(=O)C6=C(C=C(C=C6O5)O)O)OC

>  <PUBCHEM_CACTVS_TPSA>  (1) 
152

>  <PUBCHEM_MONOISOTOPIC_WEIGHT>  (1) 
566.12129689

>  <PUBCHEM_TOTAL_CHARGE>  (1) 
0

>  <PUBCHEM_HEAVY_ATOM_COUNT>  (1) 
42

>  <PUBCHEM_ATOM_DEF_STEREO_COUNT>  (1) 
0

>  <PUBCHEM_ATOM_UDEF_STEREO_COUNT>  (1) 
0

>  <PUBCHEM_BOND_DEF_STEREO_COUNT>  (1) 
0

>  <PUBCHEM_BOND_UDEF_STEREO_COUNT>  (1) 
0

>  <PUBCHEM_ISOTOPIC_ATOM_COUNT>  (1) 
0

>  <PUBCHEM_COMPONENT_COUNT>  (1) 
1

>  <PUBCHEM_CACTVS_TAUTO_COUNT>  (1) 
-1

>  <PUBCHEM_COORDINATE_TYPE>  (1) 
1
5
255

>  <PUBCHEM_BONDANNOTATIONS>  (1) 
1  13  8
1  22  8
11  13  8
11  17  8
12  16  8
12  18  8
13  14  8
14  19  8
14  23  8
15  16  8
15  24  8
17  21  8
18  25  8
19  21  8
2  20  8
2  29  8
20  30  8
22  26  8
23  26  8
24  25  8
27  34  8
27  35  8
28  29  8
28  31  8
28  32  8
29  33  8
30  31  8
32  37  8
33  36  8
34  38  8
35  39  8
36  37  8
38  40  8
39  40  8

$$$$
