Spiro[4,5]dec-6-en-1-ol, 2,6,10,10-tetramethyl
  -OEChem-12152006413D

 39 40  0     1  0  0  0  0  0999 V2000
   -0.8218   -0.9410    1.8396 O   0  0  0  0  0  0  0  0  0  0  0  0
    0.0126    0.1471   -0.2828 C   0  0  2  0  0  0  0  0  0  0  0  0
    1.0711   -1.0499   -0.4042 C   0  0  0  0  0  0  0  0  0  0  0  0
   -1.1116   -0.0108    0.8157 C   0  0  1  0  0  0  0  0  0  0  0  0
   -0.8178    0.2598   -1.6105 C   0  0  0  0  0  0  0  0  0  0  0  0
   -2.3870   -0.3947    0.0566 C   0  0  2  0  0  0  0  0  0  0  0  0
   -2.2763    0.4431   -1.2079 C   0  0  0  0  0  0  0  0  0  0  0  0
    0.7540    1.4738    0.0397 C   0  0  0  0  0  0  0  0  0  0  0  0
    2.0506   -1.0247    0.7990 C   0  0  0  0  0  0  0  0  0  0  0  0
    1.9162   -0.9192   -1.7082 C   0  0  0  0  0  0  0  0  0  0  0  0
    0.4223   -2.4549   -0.4562 C   0  0  0  0  0  0  0  0  0  0  0  0
    2.8012    0.2950    0.9348 C   0  0  0  0  0  0  0  0  0  0  0  0
    1.9835    1.4961    0.5889 C   0  0  0  0  0  0  0  0  0  0  0  0
   -3.6670   -0.1132    0.8315 C   0  0  0  0  0  0  0  0  0  0  0  0
    0.0699    2.7934   -0.2360 C   0  0  0  0  0  0  0  0  0  0  0  0
   -1.2844    0.9441    1.3269 H   0  0  0  0  0  0  0  0  0  0  0  0
   -0.7685   -0.6632   -2.1963 H   0  0  0  0  0  0  0  0  0  0  0  0
   -0.4779    1.0539   -2.2817 H   0  0  0  0  0  0  0  0  0  0  0  0
   -2.3680   -1.4638   -0.1903 H   0  0  0  0  0  0  0  0  0  0  0  0
   -2.4938    1.4988   -1.0110 H   0  0  0  0  0  0  0  0  0  0  0  0
   -2.9596    0.1004   -1.9913 H   0  0  0  0  0  0  0  0  0  0  0  0
    2.7846   -1.8372    0.7124 H   0  0  0  0  0  0  0  0  0  0  0  0
    1.5191   -1.2216    1.7355 H   0  0  0  0  0  0  0  0  0  0  0  0
    2.7549   -1.6258   -1.7008 H   0  0  0  0  0  0  0  0  0  0  0  0
    1.3263   -1.1449   -2.6025 H   0  0  0  0  0  0  0  0  0  0  0  0
    2.3357    0.0823   -1.8415 H   0  0  0  0  0  0  0  0  0  0  0  0
   -0.3000   -2.5486   -1.2719 H   0  0  0  0  0  0  0  0  0  0  0  0
    1.1861   -3.2254   -0.6192 H   0  0  0  0  0  0  0  0  0  0  0  0
   -0.0874   -2.7219    0.4720 H   0  0  0  0  0  0  0  0  0  0  0  0
    3.6856    0.2842    0.2863 H   0  0  0  0  0  0  0  0  0  0  0  0
    3.1716    0.3917    1.9621 H   0  0  0  0  0  0  0  0  0  0  0  0
    2.4585    2.4525    0.7968 H   0  0  0  0  0  0  0  0  0  0  0  0
   -3.7327    0.9386    1.1296 H   0  0  0  0  0  0  0  0  0  0  0  0
   -4.5449   -0.3445    0.2193 H   0  0  0  0  0  0  0  0  0  0  0  0
   -3.7193   -0.7249    1.7375 H   0  0  0  0  0  0  0  0  0  0  0  0
    0.6377    3.6413    0.1639 H   0  0  0  0  0  0  0  0  0  0  0  0
   -0.9196    2.8361    0.2263 H   0  0  0  0  0  0  0  0  0  0  0  0
   -0.0360    2.9640   -1.3109 H   0  0  0  0  0  0  0  0  0  0  0  0
   -1.5713   -0.9514    2.4580 H   0  0  0  0  0  0  0  0  0  0  0  0
  1  4  1  0  0  0  0
  1 39  1  0  0  0  0
  2  3  1  0  0  0  0
  2  4  1  0  0  0  0
  2  5  1  0  0  0  0
  2  8  1  0  0  0  0
  3  9  1  0  0  0  0
  3 10  1  0  0  0  0
  3 11  1  0  0  0  0
  4  6  1  0  0  0  0
  4 16  1  0  0  0  0
  5  7  1  0  0  0  0
  5 17  1  0  0  0  0
  5 18  1  0  0  0  0
  6  7  1  0  0  0  0
  6 14  1  0  0  0  0
  6 19  1  0  0  0  0
  7 20  1  0  0  0  0
  7 21  1  0  0  0  0
  8 13  2  0  0  0  0
  8 15  1  0  0  0  0
  9 12  1  0  0  0  0
  9 22  1  0  0  0  0
  9 23  1  0  0  0  0
 10 24  1  0  0  0  0
 10 25  1  0  0  0  0
 10 26  1  0  0  0  0
 11 27  1  0  0  0  0
 11 28  1  0  0  0  0
 11 29  1  0  0  0  0
 12 13  1  0  0  0  0
 12 30  1  0  0  0  0
 12 31  1  0  0  0  0
 13 32  1  0  0  0  0
 14 33  1  0  0  0  0
 14 34  1  0  0  0  0
 14 35  1  0  0  0  0
 15 36  1  0  0  0  0
 15 37  1  0  0  0  0
 15 38  1  0  0  0  0
M  END
> <PUBCHEM_COMPOUND_CID>
565114

> <PUBCHEM_CONFORMER_RMSD>
0.6

> <PUBCHEM_CONFORMER_DIVERSEORDER>
1
5
9
8
3
10
7
6
4
2

> <PUBCHEM_MMFF94_PARTIAL_CHARGES>
9
1 -0.68
12 0.14
13 -0.29
15 0.14
2 0.14
32 0.15
39 0.4
4 0.28
8 -0.28

> <PUBCHEM_EFFECTIVE_ROTOR_COUNT>
1.4

> <PUBCHEM_PHARMACOPHORE_FEATURES>
5
1 1 acceptor
1 1 donor
3 3 10 11 hydrophobe
5 2 4 5 6 7 rings
6 2 3 8 9 12 13 rings

> <PUBCHEM_HEAVY_ATOM_COUNT>
15

> <PUBCHEM_ATOM_DEF_STEREO_COUNT>
0

> <PUBCHEM_ATOM_UDEF_STEREO_COUNT>
3

> <PUBCHEM_BOND_DEF_STEREO_COUNT>
0

> <PUBCHEM_BOND_UDEF_STEREO_COUNT>
0

> <PUBCHEM_ISOTOPIC_ATOM_COUNT>
0

> <PUBCHEM_COMPONENT_COUNT>
1

> <PUBCHEM_CACTVS_TAUTO_COUNT>
1

> <PUBCHEM_CONFORMER_ID>
00089F7A00000001

> <PUBCHEM_MMFF94_ENERGY>
52.1649

> <PUBCHEM_FEATURE_SELFOVERLAP>
25.374

> <PUBCHEM_SHAPE_FINGERPRINT>
10219947 1 18340759412035251952
11067466 332 18114474391437263654
11471102 22 18409442600587306504
11578080 2 12975541890020136942
12326174 3 18272088284004682870
12423570 1 16239339996996621614
12491281 212 16414916464834676642
12696612 119 18338233881176515669
13172582 1 18270950353836337312
13538477 17 15984816026220886479
144361 1 17607842613296592335
14817 1 13443272732053409068
15207287 21 18041268950415559923
15490181 8 17912648200251244199
161256 15 18129951048617156884
16945 1 18340753871564311468
19010151 120 17841109412593232478
20511035 2 17680999800698517697
21061003 4 18339637850024194757
21501502 16 17972316484535516395
22344851 262 17988921210311854033
23419403 2 15155510347053643657
23559900 14 17606099707827371498
2748010 2 17982996870237206132
3286 77 18186797002574944011
5084963 1 17842807148687934846
528886 8 18199161001796212788
5337951 7 18261125079307369985
77492 1 17274530009996000501
81228 2 17976540507472634781

> <PUBCHEM_SHAPE_MULTIPOLES>
302.82
3.89
2.13
1.5
2.13
0.6
0.16
-0.16
-0.97
-0.9
0.25
0.11
-0.29
0.48

> <PUBCHEM_SHAPE_SELFOVERLAP>
620.497

> <PUBCHEM_SHAPE_VOLUME>
176.1

> <PUBCHEM_COORDINATE_TYPE>
2
5
10

$$$$
