64945
     RDKit          2D

 33 37  0  0  1  0  0  0  0  0999 V2000
    2.5357   -2.6574    0.0000 O   0  0  0  0  0  0  0  0  0  0  0  0
   11.4608    0.4291    0.0000 O   0  0  0  0  0  0  0  0  0  0  0  0
   10.6064   -1.0775    0.0000 O   0  0  0  0  0  0  0  0  0  0  0  0
    7.0628   -1.1050    0.0000 C   0  0  0  0  0  0  0  0  0  0  0  0
    6.1968   -0.6051    0.0000 C   0  0  0  0  0  0  0  0  0  0  0  0
    5.2868   -1.1119    0.0000 C   0  0  0  0  0  0  0  0  0  0  0  0
    7.9288   -0.6051    0.0000 C   0  0  0  0  0  0  0  0  0  0  0  0
    5.2787   -2.1535    0.0000 C   0  0  0  0  0  0  0  0  0  0  0  0
    7.0789   -2.1466    0.0000 C   0  0  0  0  0  0  0  0  0  0  0  0
    7.9288    0.3949    0.0000 C   0  0  0  0  0  0  0  0  0  0  0  0
    6.1808   -2.6743    0.0000 C   0  0  0  0  0  0  0  0  0  0  0  0
    4.3433   -2.7032    0.0000 C   0  0  0  0  0  0  0  0  0  0  0  0
    8.8228    0.9296    0.0000 C   0  0  0  0  0  0  0  0  0  0  0  0
    6.1968    0.3949    0.0000 C   0  0  0  0  0  0  0  0  0  0  0  0
    8.8228   -1.1397    0.0000 C   0  0  0  0  0  0  0  0  0  0  0  0
    4.3599   -0.5478    0.0000 C   0  0  0  0  0  0  0  0  0  0  0  0
    9.7288    0.4158    0.0000 C   0  0  0  0  0  0  0  0  0  0  0  0
    9.7288   -0.6259    0.0000 C   0  0  0  0  0  0  0  0  0  0  0  0
    7.7056   -1.8711    0.0000 C   0  0  0  0  0  0  0  0  0  0  0  0
    7.0628    0.8949    0.0000 C   0  0  0  0  0  0  0  0  0  0  0  0
    3.4037   -2.1607    0.0000 C   0  0  0  0  0  0  0  0  0  0  0  0
    5.2945   -0.1119    0.0000 C   0  0  0  0  0  0  0  0  0  0  0  0
    3.4120   -1.0758    0.0000 C   0  0  0  0  0  0  0  0  0  0  0  0
    8.7977    2.0143    0.0000 C   0  0  0  0  0  0  0  0  0  0  0  0
    8.2709   -1.5447    0.0000 C   0  0  0  0  0  0  0  0  0  0  0  0
   10.6726    0.9510    0.0000 C   0  0  0  0  0  0  0  0  0  0  0  0
    9.7288    2.5712    0.0000 C   0  0  0  0  0  0  0  0  0  0  0  0
    3.8467   -3.5712    0.0000 C   0  0  0  0  0  0  0  0  0  0  0  0
    4.8466   -3.5673    0.0000 C   0  0  0  0  0  0  0  0  0  0  0  0
   10.6726    2.0360    0.0000 C   0  0  0  0  0  0  0  0  0  0  0  0
   10.5987   -0.0775    0.0000 C   0  0  0  0  0  0  0  0  0  0  0  0
    7.9222    2.4975    0.0000 C   0  0  0  0  0  0  0  0  0  0  0  0
    9.7173    3.5712    0.0000 C   0  0  0  0  0  0  0  0  0  0  0  0
 21  1  1  1
  2 31  1  0
  3 31  2  0
  4  5  1  0
  4  7  1  0
  4  9  1  0
  4 19  1  1
  5  6  1  0
  5 14  1  1
  6  8  1  0
  6 16  1  0
  6 22  1  1
  7 10  1  0
  7 15  1  0
  7 25  1  6
  8 11  1  1
  8 12  1  0
  9 11  1  0
 13 10  1  6
 10 20  2  0
 12 21  1  0
 12 28  1  0
 12 29  1  0
 13 17  1  0
 13 24  1  0
 14 20  1  0
 15 18  1  0
 16 23  1  0
 17 18  1  0
 17 26  1  0
 17 31  1  1
 21 23  1  0
 24 27  1  0
 24 32  1  1
 26 30  1  0
 27 30  1  0
 27 33  1  6
M  END
>  <PUBCHEM_COMPOUND_CID>  (1) 
64945

>  <PUBCHEM_COMPOUND_CANONICALIZED>  (1) 
1

>  <PUBCHEM_CACTVS_COMPLEXITY>  (1) 
874

>  <PUBCHEM_CACTVS_HBOND_ACCEPTOR>  (1) 
3

>  <PUBCHEM_CACTVS_HBOND_DONOR>  (1) 
2

>  <PUBCHEM_CACTVS_ROTATABLE_BOND>  (1) 
1

>  <PUBCHEM_CACTVS_SUBSKEYS>  (1) 
AAADcfB4MAAAAAAAAAAAAAAAAAAAAAAAAAAwYMGCAAAAAADAAAAAGgAACAAADxSggAICCAAAAgCIAiDSCAAAAAAgAAAACAEAAAgAEBIAAQAAQAAEgAAIAAOIyPCPgAAAAAAAAADAAAYAADAAAAAAAAAAAA==

>  <PUBCHEM_IUPAC_OPENEYE_NAME>  (1) 
(1S,2R,4aS,6aR,6aS,6bR,8aR,10S,12aR,14bS)-10-hydroxy-1,2,6a,6b,9,9,12a-heptamethyl-2,3,4,5,6,6a,7,8,8a,10,11,12,13,14b-tetradecahydro-1H-picene-4a-carboxylic acid

>  <PUBCHEM_IUPAC_CAS_NAME>  (1) 
(1S,2R,4aS,6aR,6aS,6bR,8aR,10S,12aR,14bS)-10-hydroxy-1,2,6a,6b,9,9,12a-heptamethyl-2,3,4,5,6,6a,7,8,8a,10,11,12,13,14b-tetradecahydro-1H-picene-4a-carboxylic acid

>  <PUBCHEM_IUPAC_NAME_MARKUP>  (1) 
(1<I>S</I>,2<I>R</I>,4<I>a</I><I>S</I>,6<I>a</I><I>R</I>,6<I>a</I><I>S</I>,6<I>b</I><I>R</I>,8<I>a</I><I>R</I>,10<I>S</I>,12<I>a</I><I>R</I>,14<I>b</I><I>S</I>)-10-hydroxy-1,2,6<I>a</I>,6<I>b</I>,9,9,12<I>a</I>-heptamethyl-2,3,4,5,6,6<I>a</I>,7,8,8<I>a</I>,10,11,12,13,14<I>b</I>-tetradecahydro-1<I>H</I>-picene-4<I>a</I>-carboxylic acid

>  <PUBCHEM_IUPAC_NAME>  (1) 
(1S,2R,4aS,6aR,6aS,6bR,8aR,10S,12aR,14bS)-10-hydroxy-1,2,6a,6b,9,9,12a-heptamethyl-2,3,4,5,6,6a,7,8,8a,10,11,12,13,14b-tetradecahydro-1H-picene-4a-carboxylic acid

>  <PUBCHEM_IUPAC_SYSTEMATIC_NAME>  (1) 
(1S,2R,4aS,6aR,6aS,6bR,8aR,10S,12aR,14bS)-1,2,6a,6b,9,9,12a-heptamethyl-10-oxidanyl-2,3,4,5,6,6a,7,8,8a,10,11,12,13,14b-tetradecahydro-1H-picene-4a-carboxylic acid

>  <PUBCHEM_IUPAC_TRADITIONAL_NAME>  (1) 
(1S,2R,4aS,6aR,6aS,6bR,8aR,10S,12aR,14bS)-10-hydroxy-1,2,6a,6b,9,9,12a-heptamethyl-2,3,4,5,6,6a,7,8,8a,10,11,12,13,14b-tetradecahydro-1H-picene-4a-carboxylic acid

>  <PUBCHEM_IUPAC_INCHI>  (1) 
InChI=1S/C30H48O3/c1-18-10-15-30(25(32)33)17-16-28(6)20(24(30)19(18)2)8-9-22-27(5)13-12-23(31)26(3,4)21(27)11-14-29(22,28)7/h8,18-19,21-24,31H,9-17H2,1-7H3,(H,32,33)/t18-,19+,21+,22-,23+,24+,27+,28-,29-,30+/m1/s1

>  <PUBCHEM_IUPAC_INCHIKEY>  (1) 
WCGUUGGRBIKTOS-GPOJBZKASA-N

>  <PUBCHEM_XLOGP3_AA>  (1) 
7.3

>  <PUBCHEM_EXACT_MASS>  (1) 
456.36034539

>  <PUBCHEM_MOLECULAR_FORMULA>  (1) 
C30H48O3

>  <PUBCHEM_MOLECULAR_WEIGHT>  (1) 
456.7

>  <PUBCHEM_OPENEYE_CAN_SMILES>  (1) 
CC1CCC2(CCC3(C(=CCC4C3(CCC5C4(CCC(C5(C)C)O)C)C)C2C1C)C)C(=O)O

>  <PUBCHEM_OPENEYE_ISO_SMILES>  (1) 
C[C@@H]1CC[C@@]2(CC[C@@]3(C(=CC[C@H]4[C@]3(CC[C@@H]5[C@@]4(CC[C@@H](C5(C)C)O)C)C)[C@@H]2[C@H]1C)C)C(=O)O

>  <PUBCHEM_CACTVS_TPSA>  (1) 
57.5

>  <PUBCHEM_MONOISOTOPIC_WEIGHT>  (1) 
456.36034539

>  <PUBCHEM_TOTAL_CHARGE>  (1) 
0

>  <PUBCHEM_HEAVY_ATOM_COUNT>  (1) 
33

>  <PUBCHEM_ATOM_DEF_STEREO_COUNT>  (1) 
10

>  <PUBCHEM_ATOM_UDEF_STEREO_COUNT>  (1) 
0

>  <PUBCHEM_BOND_DEF_STEREO_COUNT>  (1) 
0

>  <PUBCHEM_BOND_UDEF_STEREO_COUNT>  (1) 
0

>  <PUBCHEM_ISOTOPIC_ATOM_COUNT>  (1) 
0

>  <PUBCHEM_COMPONENT_COUNT>  (1) 
1

>  <PUBCHEM_CACTVS_TAUTO_COUNT>  (1) 
-1

>  <PUBCHEM_COORDINATE_TYPE>  (1) 
1
5
255

>  <PUBCHEM_BONDANNOTATIONS>  (1) 
21  1  5
13  40  5
17  31  5
24  32  5
27  33  6
4  19  5
5  34  6
6  22  5
7  25  6
8  35  6

$$$$
