SV_J22_0023
  -OEChem-07172407052D

 47 49  0     1  0  0  0  0  0999 V2000
    6.0290    0.4653    0.0000 O   0  0  0  0  0  0  0  0  0  0  0  0
    6.0174    3.5346    0.0000 O   0  0  0  0  0  0  0  0  0  0  0  0
    4.2690    3.5000    0.0000 O   0  0  0  0  0  0  0  0  0  0  0  0
    2.5369    0.5000    0.0000 O   0  0  0  0  0  0  0  0  0  0  0  0
    8.6555   -2.0275    0.0000 O   0  0  0  0  0  0  0  0  0  0  0  0
   10.3914   -1.0341    0.0000 O   0  0  0  0  0  0  0  0  0  0  0  0
    2.5369   -3.5000    0.0000 O   0  0  0  0  0  0  0  0  0  0  0  0
    6.9350    0.9792    0.0000 C   0  0  1  0  0  0  0  0  0  0  0  0
    6.9350    2.0208    0.0000 C   0  0  0  0  0  0  0  0  0  0  0  0
    5.1350    1.0000    0.0000 C   0  0  0  0  0  0  0  0  0  0  0  0
    5.1350    2.0000    0.0000 C   0  0  0  0  0  0  0  0  0  0  0  0
    6.0290    2.5347    0.0000 C   0  0  0  0  0  0  0  0  0  0  0  0
    4.2690    0.5000    0.0000 C   0  0  0  0  0  0  0  0  0  0  0  0
    7.7991    0.4758    0.0000 C   0  0  0  0  0  0  0  0  0  0  0  0
    4.2690   -0.5000    0.0000 C   0  0  0  0  0  0  0  0  0  0  0  0
    4.2690    2.5000    0.0000 C   0  0  0  0  0  0  0  0  0  0  0  0
    3.4030    1.0000    0.0000 C   0  0  0  0  0  0  0  0  0  0  0  0
    3.4030    2.0000    0.0000 C   0  0  0  0  0  0  0  0  0  0  0  0
    7.7953   -0.5241    0.0000 C   0  0  0  0  0  0  0  0  0  0  0  0
    8.6671    0.9725    0.0000 C   0  0  0  0  0  0  0  0  0  0  0  0
    3.4030   -1.0000    0.0000 C   0  0  0  0  0  0  0  0  0  0  0  0
    8.6594   -1.0275    0.0000 C   0  0  0  0  0  0  0  0  0  0  0  0
    9.5312    0.4692    0.0000 C   0  0  0  0  0  0  0  0  0  0  0  0
    9.5273   -0.5308    0.0000 C   0  0  0  0  0  0  0  0  0  0  0  0
    3.4030   -2.0000    0.0000 C   0  0  0  0  0  0  0  0  0  0  0  0
    2.5369   -2.5000    0.0000 C   0  0  0  0  0  0  0  0  0  0  0  0
    4.2690   -2.5000    0.0000 C   0  0  0  0  0  0  0  0  0  0  0  0
    7.4726    1.2881    0.0000 H   0  0  0  0  0  0  0  0  0  0  0  0
    7.5459    1.9147    0.0000 H   0  0  0  0  0  0  0  0  0  0  0  0
    7.1441    2.6045    0.0000 H   0  0  0  0  0  0  0  0  0  0  0  0
    4.4810   -1.0826    0.0000 H   0  0  0  0  0  0  0  0  0  0  0  0
    4.8796   -0.3923    0.0000 H   0  0  0  0  0  0  0  0  0  0  0  0
    2.8660    2.3100    0.0000 H   0  0  0  0  0  0  0  0  0  0  0  0
    7.2571   -0.8321    0.0000 H   0  0  0  0  0  0  0  0  0  0  0  0
    8.6694    1.5925    0.0000 H   0  0  0  0  0  0  0  0  0  0  0  0
    2.8660   -0.6900    0.0000 H   0  0  0  0  0  0  0  0  0  0  0  0
   10.0693    0.7771    0.0000 H   0  0  0  0  0  0  0  0  0  0  0  0
    3.7320    3.8100    0.0000 H   0  0  0  0  0  0  0  0  0  0  0  0
    2.0000    0.8100    0.0000 H   0  0  0  0  0  0  0  0  0  0  0  0
    2.3249   -1.9174    0.0000 H   0  0  0  0  0  0  0  0  0  0  0  0
    1.9264   -2.6077    0.0000 H   0  0  0  0  0  0  0  0  0  0  0  0
    3.9590   -3.0369    0.0000 H   0  0  0  0  0  0  0  0  0  0  0  0
    4.8059   -2.8100    0.0000 H   0  0  0  0  0  0  0  0  0  0  0  0
    4.5790   -1.9631    0.0000 H   0  0  0  0  0  0  0  0  0  0  0  0
    9.1912   -2.3395    0.0000 H   0  0  0  0  0  0  0  0  0  0  0  0
   10.9295   -0.7262    0.0000 H   0  0  0  0  0  0  0  0  0  0  0  0
    2.0000   -3.8100    0.0000 H   0  0  0  0  0  0  0  0  0  0  0  0
  1  8  1  0  0  0  0
  1 10  1  0  0  0  0
  2 12  2  0  0  0  0
  3 16  1  0  0  0  0
  3 38  1  0  0  0  0
  4 17  1  0  0  0  0
  4 39  1  0  0  0  0
  5 22  1  0  0  0  0
  5 45  1  0  0  0  0
  6 24  1  0  0  0  0
  6 46  1  0  0  0  0
  7 26  1  0  0  0  0
  7 47  1  0  0  0  0
  8  9  1  0  0  0  0
  8 14  1  1  0  0  0
  8 28  1  0  0  0  0
  9 12  1  0  0  0  0
  9 29  1  0  0  0  0
  9 30  1  0  0  0  0
 10 11  1  0  0  0  0
 10 13  2  0  0  0  0
 11 12  1  0  0  0  0
 11 16  2  0  0  0  0
 13 15  1  0  0  0  0
 13 17  1  0  0  0  0
 14 19  2  0  0  0  0
 14 20  1  0  0  0  0
 15 21  1  0  0  0  0
 15 31  1  0  0  0  0
 15 32  1  0  0  0  0
 16 18  1  0  0  0  0
 17 18  2  0  0  0  0
 18 33  1  0  0  0  0
 19 22  1  0  0  0  0
 19 34  1  0  0  0  0
 20 23  2  0  0  0  0
 20 35  1  0  0  0  0
 21 25  2  0  0  0  0
 21 36  1  0  0  0  0
 22 24  2  0  0  0  0
 23 24  1  0  0  0  0
 23 37  1  0  0  0  0
 25 26  1  0  0  0  0
 25 27  1  0  0  0  0
 26 40  1  0  0  0  0
 26 41  1  0  0  0  0
 27 42  1  0  0  0  0
 27 43  1  0  0  0  0
 27 44  1  0  0  0  0
M  END
> <PUBCHEM_COMPOUND_CID>
11111496

> <PUBCHEM_COMPOUND_CANONICALIZED>
1

> <PUBCHEM_CACTVS_COMPLEXITY>
563

> <PUBCHEM_CACTVS_HBOND_ACCEPTOR>
7

> <PUBCHEM_CACTVS_HBOND_DONOR>
5

> <PUBCHEM_CACTVS_ROTATABLE_BOND>
4

> <PUBCHEM_CACTVS_SUBSKEYS>
AAADceB4OAAAAAAAAAAAAAAAAAAAAAAAAAA0YIAAAAAAAACRQAAAGgAACAAADBSgmAIyBoAABgCIAqBSAAACCAAkIAAIiAEGiMgNNzaGNRqCeWGl4BUJuQfI7PzOIAADCAAIQABAAAYQABCAAAAAAAAAAA==

> <PUBCHEM_IUPAC_OPENEYE_NAME>
(2S)-2-(3,4-dihydroxyphenyl)-5,7-dihydroxy-8-[(E)-4-hydroxy-3-methyl-but-2-enyl]chroman-4-one

> <PUBCHEM_IUPAC_CAS_NAME>
(2S)-2-(3,4-dihydroxyphenyl)-5,7-dihydroxy-8-[(E)-4-hydroxy-3-methylbut-2-enyl]-3,4-dihydro-2H-1-benzopyran-4-one

> <PUBCHEM_IUPAC_NAME_MARKUP>
(2<I>S</I>)-2-(3,4-dihydroxyphenyl)-5,7-dihydroxy-8-[(<I>E</I>)-4-hydroxy-3-methylbut-2-enyl]-2,3-dihydrochromen-4-one

> <PUBCHEM_IUPAC_NAME>
(2S)-2-(3,4-dihydroxyphenyl)-5,7-dihydroxy-8-[(E)-4-hydroxy-3-methylbut-2-enyl]-2,3-dihydrochromen-4-one

> <PUBCHEM_IUPAC_SYSTEMATIC_NAME>
(2S)-2-[3,4-bis(oxidanyl)phenyl]-8-[(E)-3-methyl-4-oxidanyl-but-2-enyl]-5,7-bis(oxidanyl)-2,3-dihydrochromen-4-one

> <PUBCHEM_IUPAC_TRADITIONAL_NAME>
(2S)-2-(3,4-dihydroxyphenyl)-5,7-dihydroxy-8-[(E)-4-hydroxy-3-methyl-but-2-enyl]chroman-4-one

> <PUBCHEM_IUPAC_INCHI>
InChI=1S/C20H20O7/c1-10(9-21)2-4-12-14(23)7-16(25)19-17(26)8-18(27-20(12)19)11-3-5-13(22)15(24)6-11/h2-3,5-7,18,21-25H,4,8-9H2,1H3/b10-2+/t18-/m0/s1

> <PUBCHEM_IUPAC_INCHIKEY>
CIJATEIGJFIOPE-OUOXKOSGSA-N

> <PUBCHEM_XLOGP3_AA>
2.7

> <PUBCHEM_EXACT_MASS>
372.12090297

> <PUBCHEM_MOLECULAR_FORMULA>
C20H20O7

> <PUBCHEM_MOLECULAR_WEIGHT>
372.4

> <PUBCHEM_OPENEYE_CAN_SMILES>
CC(=CCC1=C2C(=C(C=C1O)O)C(=O)CC(O2)C3=CC(=C(C=C3)O)O)CO

> <PUBCHEM_OPENEYE_ISO_SMILES>
C/C(=C\CC1=C2C(=C(C=C1O)O)C(=O)C[C@H](O2)C3=CC(=C(C=C3)O)O)/CO

> <PUBCHEM_CACTVS_TPSA>
127

> <PUBCHEM_MONOISOTOPIC_WEIGHT>
372.12090297

> <PUBCHEM_TOTAL_CHARGE>
0

> <PUBCHEM_HEAVY_ATOM_COUNT>
27

> <PUBCHEM_ATOM_DEF_STEREO_COUNT>
1

> <PUBCHEM_ATOM_UDEF_STEREO_COUNT>
0

> <PUBCHEM_BOND_DEF_STEREO_COUNT>
1

> <PUBCHEM_BOND_UDEF_STEREO_COUNT>
0

> <PUBCHEM_ISOTOPIC_ATOM_COUNT>
0

> <PUBCHEM_COMPONENT_COUNT>
1

> <PUBCHEM_CACTVS_TAUTO_COUNT>
-1

> <PUBCHEM_COORDINATE_TYPE>
1
5
255

> <PUBCHEM_BONDANNOTATIONS>
10  11  8
10  13  8
11  16  8
13  17  8
14  19  8
14  20  8
16  18  8
17  18  8
19  22  8
20  23  8
22  24  8
23  24  8
8  14  5

$$$$
