6321424
     RDKit          2D

 62 68  0  0  1  0  0  0  0  0999 V2000
   14.5590   -2.4124    0.0000 O   0  0  0  0  0  0  0  0  0  0  0  0
   13.7656   -1.8037    0.0000 O   0  0  0  0  0  0  0  0  0  0  0  0
   14.1572    1.1707    0.0000 O   0  0  0  0  0  0  0  0  0  0  0  0
   13.6723    5.5308    0.0000 O   0  0  0  0  0  0  0  0  0  0  0  0
   14.9598    3.8183    0.0000 O   0  0  0  0  0  0  0  0  0  0  0  0
   15.9270    5.6128    0.0000 O   0  0  0  0  0  0  0  0  0  0  0  0
   13.0395    1.5201    0.0000 O   0  0  0  0  0  0  0  0  0  0  0  0
    9.4651    0.1314    0.0000 O   0  0  0  0  0  0  0  0  0  0  0  0
    8.5991    1.6314    0.0000 O   0  0  0  0  0  0  0  0  0  0  0  0
    6.0010    2.1314    0.0000 O   0  0  0  0  0  0  0  0  0  0  0  0
    6.0010    0.1314    0.0000 O   0  0  0  0  0  0  0  0  0  0  0  0
    4.2690    2.1314    0.0000 O   0  0  0  0  0  0  0  0  0  0  0  0
    4.2690   -0.8686    0.0000 O   0  0  0  0  0  0  0  0  0  0  0  0
    2.5369    0.1314    0.0000 O   0  0  0  0  0  0  0  0  0  0  0  0
   14.6895   -1.4210    0.0000 C   0  0  0  0  0  0  0  0  0  0  0  0
   15.3523   -3.0212    0.0000 C   0  0  0  0  0  0  0  0  0  0  0  0
   16.2762   -2.6385    0.0000 C   0  0  0  0  0  0  0  0  0  0  0  0
   15.6134   -1.0383    0.0000 C   0  0  0  0  0  0  0  0  0  0  0  0
   14.8200   -0.4295    0.0000 C   0  0  0  0  0  0  0  0  0  0  0  0
   16.4067   -1.6471    0.0000 C   0  0  0  0  0  0  0  0  0  0  0  0
   14.0267    0.1792    0.0000 C   0  0  0  0  0  0  0  0  0  0  0  0
   12.9723   -1.1949    0.0000 C   0  0  0  0  0  0  0  0  0  0  0  0
   13.1028   -0.2035    0.0000 C   0  0  0  0  0  0  0  0  0  0  0  0
   15.2218   -4.0126    0.0000 C   0  0  0  0  0  0  0  0  0  0  0  0
   13.9683    3.9488    0.0000 C   0  0  0  0  0  0  0  0  0  0  0  0
   14.3510    3.0249    0.0000 C   0  0  0  0  0  0  0  0  0  0  0  0
   14.3940    4.8472    0.0000 C   0  0  0  0  0  0  0  0  0  0  0  0
   17.0696   -3.2473    0.0000 C   0  0  0  0  0  0  0  0  0  0  0  0
   12.0484   -1.5776    0.0000 C   0  0  0  0  0  0  0  0  0  0  0  0
   16.0152   -4.6214    0.0000 C   0  0  0  0  0  0  0  0  0  0  0  0
   15.3794    4.7761    0.0000 C   0  0  0  0  0  0  0  0  0  0  0  0
   12.9769    4.0793    0.0000 C   0  0  0  0  0  0  0  0  0  0  0  0
   14.2979   -4.3953    0.0000 C   0  0  0  0  0  0  0  0  0  0  0  0
   13.7422    2.2316    0.0000 C   0  0  0  0  0  0  0  0  0  0  0  0
   15.3387    3.0495    0.0000 C   0  0  0  0  0  0  0  0  0  0  0  0
   15.8391    3.9015    0.0000 C   0  0  0  0  0  0  0  0  0  0  0  0
   12.7983    5.0572    0.0000 C   0  0  0  0  0  0  0  0  0  0  0  0
   11.2550   -0.9688    0.0000 C   0  0  0  0  0  0  0  0  0  0  0  0
   15.8846   -5.6128    0.0000 C   0  0  0  0  0  0  0  0  0  0  0  0
   12.3681    3.2860    0.0000 C   0  0  0  0  0  0  0  0  0  0  0  0
   11.1245    0.0226    0.0000 C   0  0  0  0  0  0  0  0  0  0  0  0
   10.3312    0.6314    0.0000 C   0  0  0  0  0  0  0  0  0  0  0  0
   16.8388    3.8779    0.0000 C   0  0  0  0  0  0  0  0  0  0  0  0
   10.2006    1.6228    0.0000 C   0  0  0  0  0  0  0  0  0  0  0  0
   11.3767    3.1555    0.0000 C   0  0  0  0  0  0  0  0  0  0  0  0
    8.5991    0.6314    0.0000 C   0  0  0  0  0  0  0  0  0  0  0  0
    6.8671    1.6314    0.0000 C   0  0  0  0  0  0  0  0  0  0  0  0
    6.8671    0.6314    0.0000 C   0  0  0  0  0  0  0  0  0  0  0  0
    7.7331    0.1314    0.0000 C   0  0  0  0  0  0  0  0  0  0  0  0
   10.9940    2.2316    0.0000 C   0  0  0  0  0  0  0  0  0  0  0  0
    7.7331    2.1314    0.0000 C   0  0  0  0  0  0  0  0  0  0  0  0
   11.9905    0.5226    0.0000 C   0  0  0  0  0  0  0  0  0  0  0  0
    9.2768    2.0055    0.0000 C   0  0  0  0  0  0  0  0  0  0  0  0
    5.1350    1.6314    0.0000 C   0  0  0  0  0  0  0  0  0  0  0  0
    5.1350    0.6314    0.0000 C   0  0  0  0  0  0  0  0  0  0  0  0
    4.2690    0.1314    0.0000 C   0  0  0  0  0  0  0  0  0  0  0  0
    3.4030    0.6314    0.0000 C   0  0  0  0  0  0  0  0  0  0  0  0
    7.7331    3.1314    0.0000 C   0  0  0  0  0  0  0  0  0  0  0  0
    3.4030    1.6314    0.0000 C   0  0  0  0  0  0  0  0  0  0  0  0
    2.5369    2.1314    0.0000 C   0  0  0  0  0  0  0  0  0  0  0  0
    6.0010   -0.8686    0.0000 C   0  0  0  0  0  0  0  0  0  0  0  0
    5.1350   -1.3686    0.0000 C   0  0  0  0  0  0  0  0  0  0  0  0
 15  1  1  0
 16  1  1  1
  2 15  1  0
  2 22  1  0
  3 21  1  0
  3 34  1  0
 27  4  1  6
  4 37  1  0
 25  5  1  1
 31  6  1  6
  7 34  2  0
 42  8  1  1
 46  8  1  1
  9 46  1  0
  9 51  1  0
 47 10  1  1
 54 10  1  1
 48 11  1  6
 11 61  1  0
 12 54  1  0
 12 59  1  0
 56 13  1  6
 13 62  1  0
 57 14  1  1
 15 18  1  6
 15 19  1  0
 16 17  1  0
 16 24  1  0
 17 20  1  0
 17 28  1  6
 18 20  1  0
 21 19  1  6
 21 23  1  0
 22 23  1  0
 22 29  1  6
 24 30  1  0
 24 33  1  6
 25 26  1  0
 25 27  1  0
 25 32  1  0
 26 34  1  0
 26 35  1  1
 27 31  1  0
 29 38  1  0
 30 39  1  0
 31 36  1  0
 32 37  1  0
 32 40  2  0
 35 36  2  0
 36 43  1  0
 38 41  2  0
 40 45  1  0
 41 42  1  0
 41 52  1  0
 42 44  1  0
 44 50  1  0
 44 53  1  1
 45 50  2  0
 46 49  1  0
 47 48  1  0
 47 51  1  0
 48 49  1  0
 51 58  1  6
 54 55  1  0
 55 56  1  0
 56 57  1  0
 57 59  1  0
 59 60  1  6
M  END
>  <PUBCHEM_COMPOUND_CID>  (1) 
6321424

>  <PUBCHEM_COMPOUND_CANONICALIZED>  (1) 
1

>  <PUBCHEM_CACTVS_COMPLEXITY>  (1) 
1680

>  <PUBCHEM_CACTVS_HBOND_ACCEPTOR>  (1) 
14

>  <PUBCHEM_CACTVS_HBOND_DONOR>  (1) 
3

>  <PUBCHEM_CACTVS_ROTATABLE_BOND>  (1) 
8

>  <PUBCHEM_CACTVS_SUBSKEYS>  (1) 
AAADcfB8PAAAAAAAAAAAAAAAAAAAASAAAAAkSJEiAAAAAEAAAAAAGgAACAAADVSwgAMCCAAABgCIAiDSCAAAAAAgAAAICAEAAAgZFBYAIQAiUAAF4AAPsAPK7OzOgAAAAAAAAAAAAAAAAAAAAAAAAAAAAA==

>  <PUBCHEM_IUPAC_OPENEYE_NAME>  (1) 
(1R,4S,5'S,6R,6'R,8R,10E,12S,13S,14E,16E,20R,21R,24S)-21,24-dihydroxy-12-[(2R,4S,5S,6S)-5-[(2S,4S,5S,6S)-5-hydroxy-4-methoxy-6-methyl-tetrahydropyran-2-yl]oxy-4-methoxy-6-methyl-tetrahydropyran-2-yl]oxy-5',11,13,22-tetramethyl-6'-[(1S)-1-methylpropyl]spiro[3,7,19-trioxatetracyclo[15.6.1.14,8.020,24]pentacosa-10,14,16,22-tetraene-6,2'-tetrahydropyran]-2-one

>  <PUBCHEM_IUPAC_CAS_NAME>  (1) 
(1R,4S,5'S,6R,6'R,8R,10E,12S,13S,14E,16E,20R,21R,24S)-6'-[(2S)-butan-2-yl]-21,24-dihydroxy-12-[[(2R,4S,5S,6S)-5-[[(2S,4S,5S,6S)-5-hydroxy-4-methoxy-6-methyl-2-oxanyl]oxy]-4-methoxy-6-methyl-2-oxanyl]oxy]-5',11,13,22-tetramethyl-2-spiro[3,7,19-trioxatetracyclo[15.6.1.14,8.020,24]pentacosa-10,14,16,22-tetraene-6,2'-oxane]one

>  <PUBCHEM_IUPAC_NAME_MARKUP>  (1) 
(1<I>R</I>,4<I>S</I>,5&apos;<I>S</I>,6<I>R</I>,6&apos;<I>R</I>,8<I>R</I>,10<I>E</I>,12<I>S</I>,13<I>S</I>,14<I>E</I>,16<I>E</I>,20<I>R</I>,21<I>R</I>,24<I>S</I>)-6&apos;-[(2<I>S</I>)-butan-2-yl]-21,24-dihydroxy-12-[(2<I>R</I>,4<I>S</I>,5<I>S</I>,6<I>S</I>)-5-[(2<I>S</I>,4<I>S</I>,5<I>S</I>,6<I>S</I>)-5-hydroxy-4-methoxy-6-methyloxan-2-yl]oxy-4-methoxy-6-methyloxan-2-yl]oxy-5&apos;,11,13,22-tetramethylspiro[3,7,19-trioxatetracyclo[15.6.1.1<SUP>4,8</SUP>.0<SUP>20,24</SUP>]pentacosa-10,14,16,22-tetraene-6,2&apos;-oxane]-2-one

>  <PUBCHEM_IUPAC_NAME>  (1) 
(1R,4S,5'S,6R,6'R,8R,10E,12S,13S,14E,16E,20R,21R,24S)-6'-[(2S)-butan-2-yl]-21,24-dihydroxy-12-[(2R,4S,5S,6S)-5-[(2S,4S,5S,6S)-5-hydroxy-4-methoxy-6-methyloxan-2-yl]oxy-4-methoxy-6-methyloxan-2-yl]oxy-5',11,13,22-tetramethylspiro[3,7,19-trioxatetracyclo[15.6.1.14,8.020,24]pentacosa-10,14,16,22-tetraene-6,2'-oxane]-2-one

>  <PUBCHEM_IUPAC_SYSTEMATIC_NAME>  (1) 
(1R,4S,5'S,6R,6'R,8R,10E,12S,13S,14E,16E,20R,21R,24S)-6'-[(2S)-butan-2-yl]-12-[(2R,4S,5S,6S)-4-methoxy-5-[(2S,4S,5S,6S)-4-methoxy-6-methyl-5-oxidanyl-oxan-2-yl]oxy-6-methyl-oxan-2-yl]oxy-5',11,13,22-tetramethyl-21,24-bis(oxidanyl)spiro[3,7,19-trioxatetracyclo[15.6.1.14,8.020,24]pentacosa-10,14,16,22-tetraene-6,2'-oxane]-2-one

>  <PUBCHEM_IUPAC_TRADITIONAL_NAME>  (1) 
(1R,4S,5'S,6R,6'R,8R,10E,12S,13S,14E,16E,20R,21R,24S)-21,24-dihydroxy-12-[(2R,4S,5S,6S)-5-[(2S,4S,5S,6S)-5-hydroxy-4-methoxy-6-methyl-tetrahydropyran-2-yl]oxy-4-methoxy-6-methyl-tetrahydropyran-2-yl]oxy-5',11,13,22-tetramethyl-6'-[(1S)-1-methylpropyl]spiro[3,7,19-trioxatetracyclo[15.6.1.14,8.020,24]pentacosa-10,14,16,22-tetraene-6,2'-tetrahydropyran]-2-one

>  <PUBCHEM_IUPAC_INCHI>  (1) 
InChI=1S/C48H74O14/c1-11-25(2)43-28(5)17-18-47(62-43)23-34-20-33(61-47)16-15-27(4)42(26(3)13-12-14-32-24-55-45-40(49)29(6)19-35(46(51)58-34)48(32,45)52)59-39-22-37(54-10)44(31(8)57-39)60-38-21-36(53-9)41(50)30(7)56-38/h12-15,19,25-26,28,30-31,33-45,49-50,52H,11,16-18,20-24H2,1-10H3/b13-12+,27-15+,32-14+/t25-,26-,28-,30-,31-,33+,34-,35-,36-,37-,38-,39-,40+,41-,42-,43+,44-,45+,47+,48+/m0/s1

>  <PUBCHEM_IUPAC_INCHIKEY>  (1) 
AZSNMRSAGSSBNP-XPNPUAGNSA-N

>  <PUBCHEM_XLOGP3_AA>  (1) 
4.1

>  <PUBCHEM_EXACT_MASS>  (1) 
874.50785703

>  <PUBCHEM_MOLECULAR_FORMULA>  (1) 
C48H74O14

>  <PUBCHEM_MOLECULAR_WEIGHT>  (1) 
875.1

>  <PUBCHEM_OPENEYE_CAN_SMILES>  (1) 
CCC(C)C1C(CCC2(O1)CC3CC(O2)CC=C(C(C(C=CC=C4COC5C4(C(C=C(C5O)C)C(=O)O3)O)C)OC6CC(C(C(O6)C)OC7CC(C(C(O7)C)O)OC)OC)C)C

>  <PUBCHEM_OPENEYE_ISO_SMILES>  (1) 
CC[C@H](C)[C@@H]1[C@H](CC[C@@]2(O1)C[C@@H]3C[C@H](O2)C/C=C(/[C@H]([C@H](/C=C/C=C/4\CO[C@H]5[C@@]4([C@@H](C=C([C@H]5O)C)C(=O)O3)O)C)O[C@H]6C[C@@H]([C@H]([C@@H](O6)C)O[C@H]7C[C@@H]([C@H]([C@@H](O7)C)O)OC)OC)\C)C

>  <PUBCHEM_CACTVS_TPSA>  (1) 
170

>  <PUBCHEM_MONOISOTOPIC_WEIGHT>  (1) 
874.50785703

>  <PUBCHEM_TOTAL_CHARGE>  (1) 
0

>  <PUBCHEM_HEAVY_ATOM_COUNT>  (1) 
62

>  <PUBCHEM_ATOM_DEF_STEREO_COUNT>  (1) 
20

>  <PUBCHEM_ATOM_UDEF_STEREO_COUNT>  (1) 
0

>  <PUBCHEM_BOND_DEF_STEREO_COUNT>  (1) 
3

>  <PUBCHEM_BOND_UDEF_STEREO_COUNT>  (1) 
0

>  <PUBCHEM_ISOTOPIC_ATOM_COUNT>  (1) 
0

>  <PUBCHEM_COMPONENT_COUNT>  (1) 
1

>  <PUBCHEM_CACTVS_TAUTO_COUNT>  (1) 
-1

>  <PUBCHEM_COORDINATE_TYPE>  (1) 
1
5
255

>  <PUBCHEM_BONDANNOTATIONS>  (1) 
15  1  5
47  10  5
54  10  5
48  11  6
56  13  6
57  14  5
16  63  6
17  28  6
21  71  5
22  72  5
24  33  6
26  76  6
27  77  5
44  53  5
25  5  5
51  58  6
59  60  6
31  6  6
42  8  5
46  8  5

$$$$
