6449999
     RDKit          2D

 26 26  0  0  0  0  0  0  0  0999 V2000
    5.4641    2.6900    0.0000 O   0  0  0  0  0  0  0  0  0  0  0  0
    7.1962   -0.3100    0.0000 O   0  0  0  0  0  0  0  0  0  0  0  0
    8.0622    4.1900    0.0000 O   0  0  0  0  0  0  0  0  0  0  0  0
    6.3301    4.1900    0.0000 O   0  0  0  0  0  0  0  0  0  0  0  0
    8.9282    2.6900    0.0000 C   0  0  0  0  0  0  0  0  0  0  0  0
    9.7942    2.1900    0.0000 C   0  0  0  0  0  0  0  0  0  0  0  0
    8.0622    2.1900    0.0000 C   0  0  0  0  0  0  0  0  0  0  0  0
   10.6603    2.6900    0.0000 C   0  0  0  0  0  0  0  0  0  0  0  0
    6.3301    1.1900    0.0000 C   0  0  0  0  0  0  0  0  0  0  0  0
    7.1962    2.6900    0.0000 C   0  0  0  0  0  0  0  0  0  0  0  0
   11.5263    2.1900    0.0000 C   0  0  0  0  0  0  0  0  0  0  0  0
    8.0622    1.1900    0.0000 C   0  0  0  0  0  0  0  0  0  0  0  0
    6.3301    2.1900    0.0000 C   0  0  0  0  0  0  0  0  0  0  0  0
    5.4641    0.6900    0.0000 C   0  0  0  0  0  0  0  0  0  0  0  0
    7.1962    0.6900    0.0000 C   0  0  0  0  0  0  0  0  0  0  0  0
    5.4641   -0.3100    0.0000 C   0  0  0  0  0  0  0  0  0  0  0  0
    4.5981   -0.8100    0.0000 C   0  0  0  0  0  0  0  0  0  0  0  0
    4.5981   -1.8100    0.0000 C   0  0  0  0  0  0  0  0  0  0  0  0
   12.3923    2.6900    0.0000 C   0  0  0  0  0  0  0  0  0  0  0  0
    3.7320   -2.3100    0.0000 C   0  0  0  0  0  0  0  0  0  0  0  0
    7.1962    3.6900    0.0000 C   0  0  0  0  0  0  0  0  0  0  0  0
    3.7320   -0.3100    0.0000 C   0  0  0  0  0  0  0  0  0  0  0  0
    3.7320   -3.3100    0.0000 C   0  0  0  0  0  0  0  0  0  0  0  0
    2.8660   -3.8100    0.0000 C   0  0  0  0  0  0  0  0  0  0  0  0
    2.8660   -4.8100    0.0000 C   0  0  0  0  0  0  0  0  0  0  0  0
    2.0000   -3.3100    0.0000 C   0  0  0  0  0  0  0  0  0  0  0  0
  1 13  1  0
  2 15  1  0
  3 21  1  0
  4 21  2  0
  5  6  1  0
  5  7  1  0
  6  8  1  0
  7 10  2  0
  7 12  1  0
  8 11  1  0
  9 13  2  0
  9 14  1  0
  9 15  1  0
 10 13  1  0
 10 21  1  0
 11 19  1  0
 12 15  2  0
 14 16  1  0
 16 17  2  0
 17 18  1  0
 17 22  1  0
 18 20  1  0
 20 23  1  0
 23 24  2  0
 24 25  1  0
 24 26  1  0
M  END
>  <PUBCHEM_COMPOUND_CID>  (1) 
6449999

>  <PUBCHEM_COMPOUND_CANONICALIZED>  (1) 
1

>  <PUBCHEM_CACTVS_COMPLEXITY>  (1) 
490

>  <PUBCHEM_CACTVS_HBOND_ACCEPTOR>  (1) 
4

>  <PUBCHEM_CACTVS_HBOND_DONOR>  (1) 
3

>  <PUBCHEM_CACTVS_ROTATABLE_BOND>  (1) 
10

>  <PUBCHEM_CACTVS_SUBSKEYS>  (1) 
AAADcfB4OAAAAAAAAAAAAAAAAAAAAAAAAAAwAAAAAAAAAAABAAAAGgAACAAADASAmAAyDoAAAgCIAiDSCAACAAAkIAAAiAEGCMgIJzaCFRKAcUAl4BUImQeI7PTO4AADCAAYAADAAAYQADAAAAAAAAAAAA==

>  <PUBCHEM_IUPAC_OPENEYE_NAME>  (1) 
3-[(2E)-3,7-dimethylocta-2,6-dienyl]-2,4-dihydroxy-6-pentyl-benzoic acid

>  <PUBCHEM_IUPAC_CAS_NAME>  (1) 
3-[(2E)-3,7-dimethylocta-2,6-dienyl]-2,4-dihydroxy-6-pentylbenzoic acid

>  <PUBCHEM_IUPAC_NAME_MARKUP>  (1) 
3-[(2<I>E</I>)-3,7-dimethylocta-2,6-dienyl]-2,4-dihydroxy-6-pentylbenzoic acid

>  <PUBCHEM_IUPAC_NAME>  (1) 
3-[(2E)-3,7-dimethylocta-2,6-dienyl]-2,4-dihydroxy-6-pentylbenzoic acid

>  <PUBCHEM_IUPAC_SYSTEMATIC_NAME>  (1) 
3-[(2E)-3,7-dimethylocta-2,6-dienyl]-2,4-bis(oxidanyl)-6-pentyl-benzoic acid

>  <PUBCHEM_IUPAC_TRADITIONAL_NAME>  (1) 
6-amyl-3-[(2E)-3,7-dimethylocta-2,6-dienyl]-2,4-dihydroxy-benzoic acid

>  <PUBCHEM_IUPAC_INCHI>  (1) 
InChI=1S/C22H32O4/c1-5-6-7-11-17-14-19(23)18(21(24)20(17)22(25)26)13-12-16(4)10-8-9-15(2)3/h9,12,14,23-24H,5-8,10-11,13H2,1-4H3,(H,25,26)/b16-12+

>  <PUBCHEM_IUPAC_INCHIKEY>  (1) 
SEEZIOZEUUMJME-FOWTUZBSSA-N

>  <PUBCHEM_XLOGP3_AA>  (1) 
7.5

>  <PUBCHEM_EXACT_MASS>  (1) 
360.23005950

>  <PUBCHEM_MOLECULAR_FORMULA>  (1) 
C22H32O4

>  <PUBCHEM_MOLECULAR_WEIGHT>  (1) 
360.5

>  <PUBCHEM_OPENEYE_CAN_SMILES>  (1) 
CCCCCC1=CC(=C(C(=C1C(=O)O)O)CC=C(C)CCC=C(C)C)O

>  <PUBCHEM_OPENEYE_ISO_SMILES>  (1) 
CCCCCC1=CC(=C(C(=C1C(=O)O)O)C/C=C(\C)/CCC=C(C)C)O

>  <PUBCHEM_CACTVS_TPSA>  (1) 
77.8

>  <PUBCHEM_MONOISOTOPIC_WEIGHT>  (1) 
360.23005950

>  <PUBCHEM_TOTAL_CHARGE>  (1) 
0

>  <PUBCHEM_HEAVY_ATOM_COUNT>  (1) 
26

>  <PUBCHEM_ATOM_DEF_STEREO_COUNT>  (1) 
0

>  <PUBCHEM_ATOM_UDEF_STEREO_COUNT>  (1) 
0

>  <PUBCHEM_BOND_DEF_STEREO_COUNT>  (1) 
1

>  <PUBCHEM_BOND_UDEF_STEREO_COUNT>  (1) 
0

>  <PUBCHEM_ISOTOPIC_ATOM_COUNT>  (1) 
0

>  <PUBCHEM_COMPONENT_COUNT>  (1) 
1

>  <PUBCHEM_CACTVS_TAUTO_COUNT>  (1) 
-1

>  <PUBCHEM_COORDINATE_TYPE>  (1) 
1
5
255

>  <PUBCHEM_BONDANNOTATIONS>  (1) 
10  13  8
12  15  8
7  10  8
7  12  8
9  13  8
9  15  8

$$$$
