54752934
     RDKit          2D

 29 30  0  0  1  0  0  0  0  0999 V2000
   10.0497    1.1151    0.0000 O   0  0  0  0  0  0  0  0  0  0  0  0
    5.4641    3.5000    0.0000 O   0  0  0  0  0  0  0  0  0  0  0  0
    8.0622    4.0000    0.0000 O   0  0  0  0  0  0  0  0  0  0  0  0
    3.7320   -0.5000    0.0000 O   0  0  0  0  0  0  0  0  0  0  0  0
    2.8660    1.0000    0.0000 O   0  0  0  0  0  0  0  0  0  0  0  0
   10.5109    2.8364    0.0000 N   0  0  0  0  0  0  0  0  0  0  0  0
    6.3301    2.0000    0.0000 N   0  0  0  0  0  0  0  0  0  0  0  0
    4.5981    1.0000    0.0000 N   0  0  0  0  0  0  0  0  0  0  0  0
    8.9282    2.5000    0.0000 C   0  0  0  0  0  0  0  0  0  0  0  0
    8.0622    2.0000    0.0000 C   0  0  0  0  0  0  0  0  0  0  0  0
    9.0327    3.4945    0.0000 C   0  0  0  0  0  0  0  0  0  0  0  0
    7.1962    2.5000    0.0000 C   0  0  0  0  0  0  0  0  0  0  0  0
   10.0109    3.7024    0.0000 C   0  0  0  0  0  0  0  0  0  0  0  0
    9.8418    2.0933    0.0000 C   0  0  0  0  0  0  0  0  0  0  0  0
    4.5981    2.0000    0.0000 C   0  0  0  0  0  0  0  0  0  0  0  0
    3.7320    2.5000    0.0000 C   0  0  0  0  0  0  0  0  0  0  0  0
    3.7320    3.5000    0.0000 C   0  0  0  0  0  0  0  0  0  0  0  0
    5.4641    2.5000    0.0000 C   0  0  0  0  0  0  0  0  0  0  0  0
    7.1962    3.5000    0.0000 C   0  0  0  0  0  0  0  0  0  0  0  0
    2.8660    4.0000    0.0000 C   0  0  0  0  0  0  0  0  0  0  0  0
    4.5981    4.0000    0.0000 C   0  0  0  0  0  0  0  0  0  0  0  0
    3.7320    0.5000    0.0000 C   0  0  0  0  0  0  0  0  0  0  0  0
    2.8660   -1.0000    0.0000 C   0  0  0  0  0  0  0  0  0  0  0  0
    2.8660   -2.0000    0.0000 C   0  0  0  0  0  0  0  0  0  0  0  0
    3.7320   -2.5000    0.0000 C   0  0  0  0  0  0  0  0  0  0  0  0
    2.0000   -2.5000    0.0000 C   0  0  0  0  0  0  0  0  0  0  0  0
    3.7320   -3.5000    0.0000 C   0  0  0  0  0  0  0  0  0  0  0  0
    2.0000   -3.5000    0.0000 C   0  0  0  0  0  0  0  0  0  0  0  0
    2.8660   -4.0000    0.0000 C   0  0  0  0  0  0  0  0  0  0  0  0
  1 14  2  0
  2 18  2  0
  3 19  2  0
  4 22  1  0
  4 23  1  0
  5 22  2  0
  6 13  1  0
  6 14  1  0
 12  7  1  0
  7 18  1  0
 15  8  1  0
  8 22  1  0
  9 10  1  0
  9 11  1  0
  9 14  1  0
 12 10  1  6
 11 13  1  0
 12 19  1  0
 15 16  1  1
 15 18  1  0
 16 17  1  0
 17 20  1  0
 17 21  1  0
 23 24  1  0
 24 25  2  0
 24 26  1  0
 25 27  1  0
 26 28  2  0
 27 29  2  0
 28 29  1  0
M  END
>  <PUBCHEM_COMPOUND_CID>  (1) 
54752934

>  <PUBCHEM_COMPOUND_CANONICALIZED>  (1) 
1

>  <PUBCHEM_CACTVS_COMPLEXITY>  (1) 
575

>  <PUBCHEM_CACTVS_HBOND_ACCEPTOR>  (1) 
5

>  <PUBCHEM_CACTVS_HBOND_DONOR>  (1) 
3

>  <PUBCHEM_CACTVS_ROTATABLE_BOND>  (1) 
11

>  <PUBCHEM_CACTVS_SUBSKEYS>  (1) 
AAADceB7OAAAAAAAAAAAAAAAAAAAAWAAAAAwAAAAAAAAAAABAAAAHgAQAAAADSjhmAYyCILABACIAilSmAACAAAgAAAIiIGICIkIZjKAsTicMAAk1gGIqAecyyAOAAAAAAAAAAAAAAAAAAAAAAAAAAAAAA==

>  <PUBCHEM_IUPAC_OPENEYE_NAME>  (1) 
benzyl N-[(1S)-1-[[(1S)-1-formyl-2-(2-oxopyrrolidin-3-yl)ethyl]carbamoyl]-3-methyl-butyl]carbamate

>  <PUBCHEM_IUPAC_CAS_NAME>  (1) 
N-[(2S)-4-methyl-1-oxo-1-[[(2S)-1-oxo-3-(2-oxo-3-pyrrolidinyl)propan-2-yl]amino]pentan-2-yl]carbamic acid (phenylmethyl) ester

>  <PUBCHEM_IUPAC_NAME_MARKUP>  (1) 
benzyl <I>N</I>-[(2<I>S</I>)-4-methyl-1-oxo-1-[[(2<I>S</I>)-1-oxo-3-(2-oxopyrrolidin-3-yl)propan-2-yl]amino]pentan-2-yl]carbamate

>  <PUBCHEM_IUPAC_NAME>  (1) 
benzyl N-[(2S)-4-methyl-1-oxo-1-[[(2S)-1-oxo-3-(2-oxopyrrolidin-3-yl)propan-2-yl]amino]pentan-2-yl]carbamate

>  <PUBCHEM_IUPAC_SYSTEMATIC_NAME>  (1) 
(phenylmethyl) N-[(2S)-4-methyl-1-oxidanylidene-1-[[(2S)-1-oxidanylidene-3-(2-oxidanylidenepyrrolidin-3-yl)propan-2-yl]amino]pentan-2-yl]carbamate

>  <PUBCHEM_IUPAC_TRADITIONAL_NAME>  (1) 
N-[(1S)-1-[[(1S)-1-formyl-2-(2-ketopyrrolidin-3-yl)ethyl]carbamoyl]-3-methyl-butyl]carbamic acid benzyl ester

>  <PUBCHEM_IUPAC_INCHI>  (1) 
InChI=1S/C21H29N3O5/c1-14(2)10-18(24-21(28)29-13-15-6-4-3-5-7-15)20(27)23-17(12-25)11-16-8-9-22-19(16)26/h3-7,12,14,16-18H,8-11,13H2,1-2H3,(H,22,26)(H,23,27)(H,24,28)/t16?,17-,18-/m0/s1

>  <PUBCHEM_IUPAC_INCHIKEY>  (1) 
QYENXTYKACLCGO-FQECFTEESA-N

>  <PUBCHEM_XLOGP3_AA>  (1) 
1.8

>  <PUBCHEM_EXACT_MASS>  (1) 
403.21072103

>  <PUBCHEM_MOLECULAR_FORMULA>  (1) 
C21H29N3O5

>  <PUBCHEM_MOLECULAR_WEIGHT>  (1) 
403.5

>  <PUBCHEM_OPENEYE_CAN_SMILES>  (1) 
CC(C)CC(C(=O)NC(CC1CCNC1=O)C=O)NC(=O)OCC2=CC=CC=C2

>  <PUBCHEM_OPENEYE_ISO_SMILES>  (1) 
CC(C)C[C@@H](C(=O)N[C@@H](CC1CCNC1=O)C=O)NC(=O)OCC2=CC=CC=C2

>  <PUBCHEM_CACTVS_TPSA>  (1) 
114

>  <PUBCHEM_MONOISOTOPIC_WEIGHT>  (1) 
403.21072103

>  <PUBCHEM_TOTAL_CHARGE>  (1) 
0

>  <PUBCHEM_HEAVY_ATOM_COUNT>  (1) 
29

>  <PUBCHEM_ATOM_DEF_STEREO_COUNT>  (1) 
2

>  <PUBCHEM_ATOM_UDEF_STEREO_COUNT>  (1) 
1

>  <PUBCHEM_BOND_DEF_STEREO_COUNT>  (1) 
0

>  <PUBCHEM_BOND_UDEF_STEREO_COUNT>  (1) 
0

>  <PUBCHEM_ISOTOPIC_ATOM_COUNT>  (1) 
0

>  <PUBCHEM_COMPONENT_COUNT>  (1) 
1

>  <PUBCHEM_CACTVS_TAUTO_COUNT>  (1) 
-1

>  <PUBCHEM_COORDINATE_TYPE>  (1) 
1
5
255

>  <PUBCHEM_BONDANNOTATIONS>  (1) 
24  25  8
24  26  8
25  27  8
26  28  8
27  29  8
28  29  8
12  7  6
15  8  5
9  10  3

$$$$
