442935
     RDKit          2D

 15 17  0  0  1  0  0  0  0  0999 V2000
    6.7889   -1.8137    0.0000 O   0  0  0  0  0  0  0  0  0  0  0  0
    4.6660    1.9416    0.0000 O   0  0  0  0  0  0  0  0  0  0  0  0
    5.5321    0.4416    0.0000 N   0  0  0  0  0  0  0  0  0  0  0  0
    4.6660   -1.0584    0.0000 N   0  0  0  0  0  0  0  0  0  0  0  0
    7.0619   -0.0584    0.0000 C   0  0  0  0  0  0  0  0  0  0  0  0
    6.4783   -0.8632    0.0000 C   0  0  0  0  0  0  0  0  0  0  0  0
    6.4783    0.7463    0.0000 C   0  0  0  0  0  0  0  0  0  0  0  0
    5.5321   -0.5584    0.0000 C   0  0  0  0  0  0  0  0  0  0  0  0
    4.6660    0.9416    0.0000 C   0  0  0  0  0  0  0  0  0  0  0  0
    3.8000    0.4416    0.0000 C   0  0  0  0  0  0  0  0  0  0  0  0
    3.8000   -0.5584    0.0000 C   0  0  0  0  0  0  0  0  0  0  0  0
    2.9061    0.9762    0.0000 C   0  0  0  0  0  0  0  0  0  0  0  0
    2.9061   -1.0931    0.0000 C   0  0  0  0  0  0  0  0  0  0  0  0
    2.0000    0.4624    0.0000 C   0  0  0  0  0  0  0  0  0  0  0  0
    2.0000   -0.5793    0.0000 C   0  0  0  0  0  0  0  0  0  0  0  0
  6  1  1  6
  2  9  2  0
  3  7  1  0
  3  8  1  0
  3  9  1  0
  4  8  2  0
  4 11  1  0
  5  6  1  0
  5  7  1  0
  6  8  1  0
  9 10  1  0
 10 11  2  0
 10 12  1  0
 11 13  1  0
 12 14  2  0
 13 15  2  0
 14 15  1  0
M  END
>  <PUBCHEM_COMPOUND_CID>  (1) 
442935

>  <PUBCHEM_COMPOUND_CANONICALIZED>  (1) 
1

>  <PUBCHEM_CACTVS_COMPLEXITY>  (1) 
327

>  <PUBCHEM_CACTVS_HBOND_ACCEPTOR>  (1) 
3

>  <PUBCHEM_CACTVS_HBOND_DONOR>  (1) 
1

>  <PUBCHEM_CACTVS_ROTATABLE_BOND>  (1) 
0

>  <PUBCHEM_CACTVS_SUBSKEYS>  (1) 
AAADccBzMAAAAAAAAAAAAAAAAAAAAWAAAAAwQAAAAAAAAECBAAAAHgAACAAADBzhmAYxwIMAAgCoAidydASCAAEkAgAJiAE4ZMgKMDqA3ZGEYYhihgCYyccYiACOAAAAAAACAAAAAAAAAAQAAAAAAAAAAA==

>  <PUBCHEM_IUPAC_OPENEYE_NAME>  (1) 
(3S)-3-hydroxy-2,3-dihydro-1H-pyrrolo[2,1-b]quinazolin-9-one

>  <PUBCHEM_IUPAC_CAS_NAME>  (1) 
(3S)-3-hydroxy-2,3-dihydro-1H-pyrrolo[2,1-b]quinazolin-9-one

>  <PUBCHEM_IUPAC_NAME_MARKUP>  (1) 
(3<I>S</I>)-3-hydroxy-2,3-dihydro-1<I>H</I>-pyrrolo[2,1-b]quinazolin-9-one

>  <PUBCHEM_IUPAC_NAME>  (1) 
(3S)-3-hydroxy-2,3-dihydro-1H-pyrrolo[2,1-b]quinazolin-9-one

>  <PUBCHEM_IUPAC_SYSTEMATIC_NAME>  (1) 
(3S)-3-oxidanyl-2,3-dihydro-1H-pyrrolo[2,1-b]quinazolin-9-one

>  <PUBCHEM_IUPAC_TRADITIONAL_NAME>  (1) 
(3S)-3-hydroxy-2,3-dihydro-1H-pyrrolo[2,1-b]quinazolin-9-one

>  <PUBCHEM_IUPAC_INCHI>  (1) 
InChI=1S/C11H10N2O2/c14-9-5-6-13-10(9)12-8-4-2-1-3-7(8)11(13)15/h1-4,9,14H,5-6H2/t9-/m0/s1

>  <PUBCHEM_IUPAC_INCHIKEY>  (1) 
SDIVYZXRQHWCKF-VIFPVBQESA-N

>  <PUBCHEM_XLOGP3_AA>  (1) 
0.4

>  <PUBCHEM_EXACT_MASS>  (1) 
202.074227566

>  <PUBCHEM_MOLECULAR_FORMULA>  (1) 
C11H10N2O2

>  <PUBCHEM_MOLECULAR_WEIGHT>  (1) 
202.21

>  <PUBCHEM_OPENEYE_CAN_SMILES>  (1) 
C1CN2C(=NC3=CC=CC=C3C2=O)C1O

>  <PUBCHEM_OPENEYE_ISO_SMILES>  (1) 
C1CN2C(=NC3=CC=CC=C3C2=O)[C@H]1O

>  <PUBCHEM_CACTVS_TPSA>  (1) 
52.9

>  <PUBCHEM_MONOISOTOPIC_WEIGHT>  (1) 
202.074227566

>  <PUBCHEM_TOTAL_CHARGE>  (1) 
0

>  <PUBCHEM_HEAVY_ATOM_COUNT>  (1) 
15

>  <PUBCHEM_ATOM_DEF_STEREO_COUNT>  (1) 
1

>  <PUBCHEM_ATOM_UDEF_STEREO_COUNT>  (1) 
0

>  <PUBCHEM_BOND_DEF_STEREO_COUNT>  (1) 
0

>  <PUBCHEM_BOND_UDEF_STEREO_COUNT>  (1) 
0

>  <PUBCHEM_ISOTOPIC_ATOM_COUNT>  (1) 
0

>  <PUBCHEM_COMPONENT_COUNT>  (1) 
1

>  <PUBCHEM_CACTVS_TAUTO_COUNT>  (1) 
-1

>  <PUBCHEM_COORDINATE_TYPE>  (1) 
1
5
255

>  <PUBCHEM_BONDANNOTATIONS>  (1) 
6  1  6
10  11  8
10  12  8
11  13  8
12  14  8
13  15  8
14  15  8
3  8  8
3  9  8
4  11  8
4  8  8
9  10  8

$$$$
