SV_J22_0016
  -OEChem-07172407052D

 46 49  0     1  0  0  0  0  0999 V2000
    4.4455   -0.7881    0.0000 O   0  0  0  0  0  0  0  0  0  0  0  0
    9.7477    0.2295    0.0000 O   0  0  0  0  0  0  0  0  0  0  0  0
    6.2237    2.2641    0.0000 O   0  0  0  0  0  0  0  0  0  0  0  0
    5.3631   -2.3019    0.0000 O   0  0  0  0  0  0  0  0  0  0  0  0
    2.0000    1.0993    0.0000 O   0  0  0  0  0  0  0  0  0  0  0  0
    6.2455    0.2327    0.0000 C   0  0  1  0  0  0  0  0  0  0  0  0
    7.1115    0.7327    0.0000 C   0  0  1  0  0  0  0  0  0  0  0  0
    7.9775    0.2327    0.0000 C   0  0  1  0  0  0  0  0  0  0  0  0
    6.2455   -0.7673    0.0000 C   0  0  1  0  0  0  0  0  0  0  0  0
    7.9775   -0.7673    0.0000 C   0  0  0  0  0  0  0  0  0  0  0  0
    7.1115   -1.2673    0.0000 C   0  0  0  0  0  0  0  0  0  0  0  0
    5.3515    0.7673    0.0000 C   0  0  0  0  0  0  0  0  0  0  0  0
    8.8875    0.7395    0.0000 C   0  0  1  0  0  0  0  0  0  0  0  0
    6.2455    1.2327    0.0000 C   0  0  0  0  0  0  0  0  0  0  0  0
    8.8435   -0.2673    0.0000 C   0  0  0  0  0  0  0  0  0  0  0  0
    7.0954    1.7742    0.0000 C   0  0  0  0  0  0  0  0  0  0  0  0
    4.4455    0.2535    0.0000 C   0  0  1  0  0  0  0  0  0  0  0  0
    5.3515   -1.3020    0.0000 C   0  0  0  0  0  0  0  0  0  0  0  0
    8.8956    1.7811    0.0000 C   0  0  0  0  0  0  0  0  0  0  0  0
    7.9935    2.3019    0.0000 C   0  0  0  0  0  0  0  0  0  0  0  0
    3.5814    0.7568    0.0000 C   0  0  0  0  0  0  0  0  0  0  0  0
    3.4807    1.7517    0.0000 C   0  0  0  0  0  0  0  0  0  0  0  0
    2.6663    0.3536    0.0000 C   0  0  0  0  0  0  0  0  0  0  0  0
    2.5033    1.9634    0.0000 C   0  0  0  0  0  0  0  0  0  0  0  0
    7.8443    1.1633    0.0000 H   0  0  0  0  0  0  0  0  0  0  0  0
    6.2520   -1.6173    0.0000 H   0  0  0  0  0  0  0  0  0  0  0  0
    8.1896   -1.3499    0.0000 H   0  0  0  0  0  0  0  0  0  0  0  0
    8.5881   -0.6597    0.0000 H   0  0  0  0  0  0  0  0  0  0  0  0
    6.7130   -1.7423    0.0000 H   0  0  0  0  0  0  0  0  0  0  0  0
    7.5100   -1.7423    0.0000 H   0  0  0  0  0  0  0  0  0  0  0  0
    5.7561    1.2371    0.0000 H   0  0  0  0  0  0  0  0  0  0  0  0
    4.9579    1.2464    0.0000 H   0  0  0  0  0  0  0  0  0  0  0  0
    9.4274    1.0443    0.0000 H   0  0  0  0  0  0  0  0  0  0  0  0
    6.8655    1.2327    0.0000 H   0  0  0  0  0  0  0  0  0  0  0  0
    6.2455    1.8527    0.0000 H   0  0  0  0  0  0  0  0  0  0  0  0
    5.6255    1.2327    0.0000 H   0  0  0  0  0  0  0  0  0  0  0  0
    8.5335   -0.8043    0.0000 H   0  0  0  0  0  0  0  0  0  0  0  0
    9.3805   -0.5773    0.0000 H   0  0  0  0  0  0  0  0  0  0  0  0
    9.1535    0.2696    0.0000 H   0  0  0  0  0  0  0  0  0  0  0  0
    3.9079   -0.0555    0.0000 H   0  0  0  0  0  0  0  0  0  0  0  0
    9.4337    2.0890    0.0000 H   0  0  0  0  0  0  0  0  0  0  0  0
    7.9911    2.9219    0.0000 H   0  0  0  0  0  0  0  0  0  0  0  0
   10.2882    0.5333    0.0000 H   0  0  0  0  0  0  0  0  0  0  0  0
    3.9430    2.1648    0.0000 H   0  0  0  0  0  0  0  0  0  0  0  0
    2.5350   -0.2523    0.0000 H   0  0  0  0  0  0  0  0  0  0  0  0
    2.2533    2.5308    0.0000 H   0  0  0  0  0  0  0  0  0  0  0  0
  1 17  1  0  0  0  0
  1 18  1  0  0  0  0
 13  2  1  1  0  0  0
  2 43  1  0  0  0  0
  3 16  2  0  0  0  0
  4 18  2  0  0  0  0
  5 23  1  0  0  0  0
  5 24  1  0  0  0  0
  6  7  1  0  0  0  0
  6  9  1  0  0  0  0
  6 12  1  0  0  0  0
  6 14  1  6  0  0  0
  7  8  1  0  0  0  0
  7 16  1  0  0  0  0
  7 25  1  1  0  0  0
  8 10  1  0  0  0  0
  8 13  1  0  0  0  0
  8 15  1  1  0  0  0
  9 11  1  0  0  0  0
  9 18  1  0  0  0  0
  9 26  1  6  0  0  0
 10 11  1  0  0  0  0
 10 27  1  0  0  0  0
 10 28  1  0  0  0  0
 11 29  1  0  0  0  0
 11 30  1  0  0  0  0
 12 17  1  0  0  0  0
 12 31  1  0  0  0  0
 12 32  1  0  0  0  0
 13 19  1  0  0  0  0
 13 33  1  0  0  0  0
 14 34  1  0  0  0  0
 14 35  1  0  0  0  0
 14 36  1  0  0  0  0
 15 37  1  0  0  0  0
 15 38  1  0  0  0  0
 15 39  1  0  0  0  0
 16 20  1  0  0  0  0
 17 21  1  6  0  0  0
 17 40  1  0  0  0  0
 19 20  2  0  0  0  0
 19 41  1  0  0  0  0
 20 42  1  0  0  0  0
 21 22  1  0  0  0  0
 21 23  2  0  0  0  0
 22 24  2  0  0  0  0
 22 44  1  0  0  0  0
 23 45  1  0  0  0  0
 24 46  1  0  0  0  0
M  END
> <PUBCHEM_COMPOUND_CID>
15215479

> <PUBCHEM_COMPOUND_CANONICALIZED>
1

> <PUBCHEM_CACTVS_COMPLEXITY>
599

> <PUBCHEM_CACTVS_HBOND_ACCEPTOR>
5

> <PUBCHEM_CACTVS_HBOND_DONOR>
1

> <PUBCHEM_CACTVS_ROTATABLE_BOND>
1

> <PUBCHEM_CACTVS_SUBSKEYS>
AAADceB4OAAAAAAAAAAAAAAAAAAAASAAAAA0QIAAAAAAAACRgAAAGgAACAAADxSgmAIyDIAABkCIAqjSiAACCAAkIAAIiAEGCMgMNxYENQqCWSCl4BEIOYPKzvDvgAAAAAAAAACAAAQAACAAAAAAAAAAAA==

> <PUBCHEM_IUPAC_OPENEYE_NAME>
(2S,4aR,6aR,7R,10aS,10bS)-2-(3-furyl)-7-hydroxy-6a,10b-dimethyl-2,4a,5,6,7,10a-hexahydro-1H-benzo[f]isochromene-4,10-dione

> <PUBCHEM_IUPAC_CAS_NAME>
(2S,4aR,6aR,7R,10aS,10bS)-2-(3-furanyl)-7-hydroxy-6a,10b-dimethyl-2,4a,5,6,7,10a-hexahydro-1H-benzo[f][2]benzopyran-4,10-dione

> <PUBCHEM_IUPAC_NAME_MARKUP>
(2<I>S</I>,4<I>a</I><I>R</I>,6<I>a</I><I>R</I>,7<I>R</I>,10<I>a</I><I>S</I>,10<I>b</I><I>S</I>)-2-(furan-3-yl)-7-hydroxy-6<I>a</I>,10<I>b</I>-dimethyl-2,4<I>a</I>,5,6,7,10<I>a</I>-hexahydro-1<I>H</I>-benzo[f]isochromene-4,10-dione

> <PUBCHEM_IUPAC_NAME>
(2S,4aR,6aR,7R,10aS,10bS)-2-(furan-3-yl)-7-hydroxy-6a,10b-dimethyl-2,4a,5,6,7,10a-hexahydro-1H-benzo[f]isochromene-4,10-dione

> <PUBCHEM_IUPAC_SYSTEMATIC_NAME>
(2S,4aR,6aR,7R,10aS,10bS)-2-(furan-3-yl)-6a,10b-dimethyl-7-oxidanyl-2,4a,5,6,7,10a-hexahydro-1H-benzo[f]isochromene-4,10-dione

> <PUBCHEM_IUPAC_TRADITIONAL_NAME>
(2S,4aR,6aR,7R,10aS,10bS)-2-(3-furyl)-7-hydroxy-6a,10b-dimethyl-2,4a,5,6,7,10a-hexahydro-1H-benz[f]isochromene-4,10-quinone

> <PUBCHEM_IUPAC_INCHI>
InChI=1S/C19H22O5/c1-18-7-5-12-17(22)24-14(11-6-8-23-10-11)9-19(12,2)16(18)13(20)3-4-15(18)21/h3-4,6,8,10,12,14-16,21H,5,7,9H2,1-2H3/t12-,14-,15+,16+,18-,19+/m0/s1

> <PUBCHEM_IUPAC_INCHIKEY>
RKUPDDZLTBYXDN-RSDLCGCGSA-N

> <PUBCHEM_XLOGP3_AA>
1.8

> <PUBCHEM_EXACT_MASS>
330.14672380

> <PUBCHEM_MOLECULAR_FORMULA>
C19H22O5

> <PUBCHEM_MOLECULAR_WEIGHT>
330.4

> <PUBCHEM_OPENEYE_CAN_SMILES>
CC12CCC3C(=O)OC(CC3(C1C(=O)C=CC2O)C)C4=COC=C4

> <PUBCHEM_OPENEYE_ISO_SMILES>
C[C@@]12CC[C@H]3C(=O)O[C@@H](C[C@]3([C@@H]1C(=O)C=C[C@H]2O)C)C4=COC=C4

> <PUBCHEM_CACTVS_TPSA>
76.7

> <PUBCHEM_MONOISOTOPIC_WEIGHT>
330.14672380

> <PUBCHEM_TOTAL_CHARGE>
0

> <PUBCHEM_HEAVY_ATOM_COUNT>
24

> <PUBCHEM_ATOM_DEF_STEREO_COUNT>
6

> <PUBCHEM_ATOM_UDEF_STEREO_COUNT>
0

> <PUBCHEM_BOND_DEF_STEREO_COUNT>
0

> <PUBCHEM_BOND_UDEF_STEREO_COUNT>
0

> <PUBCHEM_ISOTOPIC_ATOM_COUNT>
0

> <PUBCHEM_COMPONENT_COUNT>
1

> <PUBCHEM_CACTVS_TAUTO_COUNT>
-1

> <PUBCHEM_COORDINATE_TYPE>
1
5
255

> <PUBCHEM_BONDANNOTATIONS>
17  21  6
13  2  5
21  22  8
21  23  8
22  24  8
5  23  8
5  24  8
6  14  6
7  25  5
8  15  5
9  26  6

$$$$
