16075395
     RDKit          2D

 37 41  0  0  0  0  0  0  0  0999 V2000
    7.7940   -0.4927    0.0000 O   0  0  0  0  0  0  0  0  0  0  0  0
    7.7940   -2.4927    0.0000 O   0  0  0  0  0  0  0  0  0  0  0  0
    4.2639   -0.4686    0.0000 O   0  0  0  0  0  0  0  0  0  0  0  0
   11.3242   -0.4686    0.0000 O   0  0  0  0  0  0  0  0  0  0  0  0
    9.5424    0.5419    0.0000 O   0  0  0  0  0  0  0  0  0  0  0  0
    6.0456   -3.5273    0.0000 O   0  0  0  0  0  0  0  0  0  0  0  0
    4.2639   -2.5168    0.0000 O   0  0  0  0  0  0  0  0  0  0  0  0
   11.3242   -2.5168    0.0000 O   0  0  0  0  0  0  0  0  0  0  0  0
    5.9998    0.5248    0.0000 O   0  0  0  0  0  0  0  0  0  0  0  0
    2.5357    0.5381    0.0000 O   0  0  0  0  0  0  0  0  0  0  0  0
    4.2793    3.5314    0.0000 O   0  0  0  0  0  0  0  0  0  0  0  0
   13.0678   -3.4618    0.0000 O   0  0  0  0  0  0  0  0  0  0  0  0
   14.7882   -0.4552    0.0000 O   0  0  0  0  0  0  0  0  0  0  0  0
    8.6601   -0.9927    0.0000 C   0  0  0  0  0  0  0  0  0  0  0  0
    6.9280   -0.9927    0.0000 C   0  0  0  0  0  0  0  0  0  0  0  0
    6.9280   -1.9927    0.0000 C   0  0  0  0  0  0  0  0  0  0  0  0
    8.6601   -1.9927    0.0000 C   0  0  0  0  0  0  0  0  0  0  0  0
    9.5540   -0.4580    0.0000 C   0  0  0  0  0  0  0  0  0  0  0  0
    6.0341   -2.5274    0.0000 C   0  0  0  0  0  0  0  0  0  0  0  0
    6.0341   -0.4580    0.0000 C   0  0  0  0  0  0  0  0  0  0  0  0
    5.1280   -0.9719    0.0000 C   0  0  0  0  0  0  0  0  0  0  0  0
   10.4601   -0.9719    0.0000 C   0  0  0  0  0  0  0  0  0  0  0  0
    9.5540   -2.5274    0.0000 C   0  0  0  0  0  0  0  0  0  0  0  0
    5.1280   -2.0135    0.0000 C   0  0  0  0  0  0  0  0  0  0  0  0
   10.4601   -2.0135    0.0000 C   0  0  0  0  0  0  0  0  0  0  0  0
    4.2678    0.5314    0.0000 C   0  0  0  0  0  0  0  0  0  0  0  0
   12.1921   -0.9652    0.0000 C   0  0  0  0  0  0  0  0  0  0  0  0
    5.1357    1.0281    0.0000 C   0  0  0  0  0  0  0  0  0  0  0  0
    3.4037    1.0348    0.0000 C   0  0  0  0  0  0  0  0  0  0  0  0
   13.0562   -0.4619    0.0000 C   0  0  0  0  0  0  0  0  0  0  0  0
   12.1960   -1.9652    0.0000 C   0  0  0  0  0  0  0  0  0  0  0  0
    5.1396    2.0281    0.0000 C   0  0  0  0  0  0  0  0  0  0  0  0
    3.4075    2.0348    0.0000 C   0  0  0  0  0  0  0  0  0  0  0  0
    4.2755    2.5314    0.0000 C   0  0  0  0  0  0  0  0  0  0  0  0
   13.0639   -2.4619    0.0000 C   0  0  0  0  0  0  0  0  0  0  0  0
   13.9242   -0.9585    0.0000 C   0  0  0  0  0  0  0  0  0  0  0  0
   13.9280   -1.9585    0.0000 C   0  0  0  0  0  0  0  0  0  0  0  0
  1 14  1  0
  1 15  1  0
  2 16  1  0
  2 17  1  0
  3 21  1  0
  3 26  1  0
  4 22  1  0
  4 27  1  0
  5 18  1  0
  6 19  1  0
  7 24  1  0
  8 25  1  0
  9 28  1  0
 10 29  1  0
 11 34  1  0
 12 35  1  0
 13 36  1  0
 14 17  2  0
 14 18  1  0
 15 16  2  0
 15 20  1  0
 16 19  1  0
 17 23  1  0
 18 22  2  0
 19 24  2  0
 20 21  2  0
 21 24  1  0
 22 25  1  0
 23 25  2  0
 26 28  2  0
 26 29  1  0
 27 30  2  0
 27 31  1  0
 28 32  1  0
 29 33  2  0
 30 36  1  0
 31 35  2  0
 32 34  2  0
 33 34  1  0
 35 37  1  0
 36 37  2  0
M  END
>  <PUBCHEM_COMPOUND_CID>  (1) 
16075395

>  <PUBCHEM_COMPOUND_CANONICALIZED>  (1) 
1

>  <PUBCHEM_CACTVS_COMPLEXITY>  (1) 
751

>  <PUBCHEM_CACTVS_HBOND_ACCEPTOR>  (1) 
13

>  <PUBCHEM_CACTVS_HBOND_DONOR>  (1) 
9

>  <PUBCHEM_CACTVS_ROTATABLE_BOND>  (1) 
4

>  <PUBCHEM_CACTVS_SUBSKEYS>  (1) 
AAADceB4PAAAAAAAAAAAAAAAAAAAAAAAAAA0YMGCAAAAAACRVAAAGgAACAAACASAkAAwBoAABgCAACBCAAACCAAgIAAAiAAGiIgNJyKGMRqCeCOlwBULuAfAYAwAAQAACAAAQAACAAAQAACAAAAAAAAAAA==

>  <PUBCHEM_IUPAC_OPENEYE_NAME>  (1) 
7-(3,5-dihydroxyphenoxy)-3-(2,4,6-trihydroxyphenoxy)dibenzo-p-dioxin-1,2,6,8-tetrol

>  <PUBCHEM_IUPAC_CAS_NAME>  (1) 
7-(3,5-dihydroxyphenoxy)-3-(2,4,6-trihydroxyphenoxy)dibenzo-p-dioxin-1,2,6,8-tetrol

>  <PUBCHEM_IUPAC_NAME_MARKUP>  (1) 
7-(3,5-dihydroxyphenoxy)-3-(2,4,6-trihydroxyphenoxy)dibenzo-p-dioxin-1,2,6,8-tetrol

>  <PUBCHEM_IUPAC_NAME>  (1) 
7-(3,5-dihydroxyphenoxy)-3-(2,4,6-trihydroxyphenoxy)dibenzo-p-dioxin-1,2,6,8-tetrol

>  <PUBCHEM_IUPAC_SYSTEMATIC_NAME>  (1) 
7-[3,5-bis(oxidanyl)phenoxy]-3-[2,4,6-tris(oxidanyl)phenoxy]dibenzo-p-dioxin-1,2,6,8-tetrol

>  <PUBCHEM_IUPAC_TRADITIONAL_NAME>  (1) 
7-(3,5-dihydroxyphenoxy)-3-(2,4,6-trihydroxyphenoxy)dibenzo-p-dioxin-1,2,6,8-tetrol

>  <PUBCHEM_IUPAC_INCHI>  (1) 
InChI=1S/C24H16O13/c25-8-1-9(26)3-11(2-8)34-22-14(30)6-16-24(20(22)33)37-17-7-15(18(31)19(32)23(17)36-16)35-21-12(28)4-10(27)5-13(21)29/h1-7,25-33H

>  <PUBCHEM_IUPAC_INCHIKEY>  (1) 
FGIOHPMUNJGQTO-UHFFFAOYSA-N

>  <PUBCHEM_XLOGP3_AA>  (1) 
2.9

>  <PUBCHEM_EXACT_MASS>  (1) 
512.05909056

>  <PUBCHEM_MOLECULAR_FORMULA>  (1) 
C24H16O13

>  <PUBCHEM_MOLECULAR_WEIGHT>  (1) 
512.4

>  <PUBCHEM_OPENEYE_CAN_SMILES>  (1) 
C1=C(C=C(C=C1O)OC2=C(C3=C(C=C2O)OC4=C(C(=C(C=C4O3)OC5=C(C=C(C=C5O)O)O)O)O)O)O

>  <PUBCHEM_OPENEYE_ISO_SMILES>  (1) 
C1=C(C=C(C=C1O)OC2=C(C3=C(C=C2O)OC4=C(C(=C(C=C4O3)OC5=C(C=C(C=C5O)O)O)O)O)O)O

>  <PUBCHEM_CACTVS_TPSA>  (1) 
219

>  <PUBCHEM_MONOISOTOPIC_WEIGHT>  (1) 
512.05909056

>  <PUBCHEM_TOTAL_CHARGE>  (1) 
0

>  <PUBCHEM_HEAVY_ATOM_COUNT>  (1) 
37

>  <PUBCHEM_ATOM_DEF_STEREO_COUNT>  (1) 
0

>  <PUBCHEM_ATOM_UDEF_STEREO_COUNT>  (1) 
0

>  <PUBCHEM_BOND_DEF_STEREO_COUNT>  (1) 
0

>  <PUBCHEM_BOND_UDEF_STEREO_COUNT>  (1) 
0

>  <PUBCHEM_ISOTOPIC_ATOM_COUNT>  (1) 
0

>  <PUBCHEM_COMPONENT_COUNT>  (1) 
1

>  <PUBCHEM_CACTVS_TAUTO_COUNT>  (1) 
-1

>  <PUBCHEM_COORDINATE_TYPE>  (1) 
1
5
255

>  <PUBCHEM_BONDANNOTATIONS>  (1) 
14  17  8
14  18  8
15  16  8
15  20  8
16  19  8
17  23  8
18  22  8
19  24  8
20  21  8
21  24  8
22  25  8
23  25  8
26  28  8
26  29  8
27  30  8
27  31  8
28  32  8
29  33  8
30  36  8
31  35  8
32  34  8
33  34  8
35  37  8
36  37  8

$$$$
