Xanthoangelol E
  -OEChem-12162008133D

 49 50  0     1  0  0  0  0  0999 V2000
    5.2321   -0.5646   -0.7576 O   0  0  0  0  0  0  0  0  0  0  0  0
    3.3593   -2.5813    0.4302 O   0  0  0  0  0  0  0  0  0  0  0  0
    1.4872    1.8223    0.5661 O   0  0  0  0  0  0  0  0  0  0  0  0
    6.0220   -0.0709   -1.8703 O   0  0  0  0  0  0  0  0  0  0  0  0
   -0.8490    2.0439   -0.6524 O   0  0  0  0  0  0  0  0  0  0  0  0
   -8.7496   -0.6946    0.3410 O   0  0  0  0  0  0  0  0  0  0  0  0
    3.7470    0.1773    0.9926 C   0  0  0  0  0  0  0  0  0  0  0  0
    4.6626    0.6042   -0.1650 C   0  0  1  0  0  0  0  0  0  0  0  0
    2.4279   -0.3728    0.5005 C   0  0  0  0  0  0  0  0  0  0  0  0
    1.3570    0.4880    0.3114 C   0  0  0  0  0  0  0  0  0  0  0  0
    2.3106   -1.7310    0.2458 C   0  0  0  0  0  0  0  0  0  0  0  0
    5.7743    1.5238    0.2990 C   0  0  0  0  0  0  0  0  0  0  0  0
    0.1405   -0.0214   -0.1426 C   0  0  0  0  0  0  0  0  0  0  0  0
    1.0941   -2.2404   -0.2083 C   0  0  0  0  0  0  0  0  0  0  0  0
    0.0090   -1.3856   -0.4024 C   0  0  0  0  0  0  0  0  0  0  0  0
    6.7061    1.0221    1.3668 C   0  0  0  0  0  0  0  0  0  0  0  0
   -1.0062    0.8517   -0.3528 C   0  0  0  0  0  0  0  0  0  0  0  0
    5.9260    2.7477   -0.2319 C   0  0  0  0  0  0  0  0  0  0  0  0
   -2.3842    0.2837   -0.1676 C   0  0  0  0  0  0  0  0  0  0  0  0
    3.1349   -3.9592    0.1394 C   0  0  0  0  0  0  0  0  0  0  0  0
   -3.4676    1.0586   -0.3240 C   0  0  0  0  0  0  0  0  0  0  0  0
   -4.8563    0.5978   -0.1500 C   0  0  0  0  0  0  0  0  0  0  0  0
   -5.1344   -0.7577   -0.2168 C   0  0  0  0  0  0  0  0  0  0  0  0
   -5.8564    1.5290    0.0780 C   0  0  0  0  0  0  0  0  0  0  0  0
   -6.4490   -1.1942   -0.0513 C   0  0  0  0  0  0  0  0  0  0  0  0
   -7.1708    1.0926    0.2437 C   0  0  0  0  0  0  0  0  0  0  0  0
   -7.4671   -0.2690    0.1789 C   0  0  0  0  0  0  0  0  0  0  0  0
    4.2424   -0.5766    1.6189 H   0  0  0  0  0  0  0  0  0  0  0  0
    3.5537    1.0247    1.6635 H   0  0  0  0  0  0  0  0  0  0  0  0
    4.0581    1.1048   -0.9341 H   0  0  0  0  0  0  0  0  0  0  0  0
    0.9205   -3.2857   -0.4395 H   0  0  0  0  0  0  0  0  0  0  0  0
   -0.9046   -1.8209   -0.7960 H   0  0  0  0  0  0  0  0  0  0  0  0
    6.1675    0.8566    2.3048 H   0  0  0  0  0  0  0  0  0  0  0  0
    7.1707    0.0797    1.0598 H   0  0  0  0  0  0  0  0  0  0  0  0
    7.5137    1.7328    1.5731 H   0  0  0  0  0  0  0  0  0  0  0  0
    6.7205    3.4107    0.0939 H   0  0  0  0  0  0  0  0  0  0  0  0
    5.2591    3.1161   -1.0042 H   0  0  0  0  0  0  0  0  0  0  0  0
    0.6304    2.2724    0.5050 H   0  0  0  0  0  0  0  0  0  0  0  0
   -2.4682   -0.7410    0.1697 H   0  0  0  0  0  0  0  0  0  0  0  0
    4.0722   -4.4874    0.3435 H   0  0  0  0  0  0  0  0  0  0  0  0
    2.3763   -4.3935    0.7995 H   0  0  0  0  0  0  0  0  0  0  0  0
    2.9071   -4.1165   -0.9204 H   0  0  0  0  0  0  0  0  0  0  0  0
   -3.3572    2.1027   -0.6075 H   0  0  0  0  0  0  0  0  0  0  0  0
    5.3629   -0.2703   -2.5571 H   0  0  0  0  0  0  0  0  0  0  0  0
   -4.3794   -1.5113   -0.4172 H   0  0  0  0  0  0  0  0  0  0  0  0
   -5.6410    2.5928    0.1325 H   0  0  0  0  0  0  0  0  0  0  0  0
   -6.6750   -2.2556   -0.1077 H   0  0  0  0  0  0  0  0  0  0  0  0
   -7.9550    1.8233    0.4231 H   0  0  0  0  0  0  0  0  0  0  0  0
   -9.3214    0.0779    0.4908 H   0  0  0  0  0  0  0  0  0  0  0  0
  1  4  1  0  0  0  0
  1  8  1  0  0  0  0
  2 11  1  0  0  0  0
  2 20  1  0  0  0  0
  3 10  1  0  0  0  0
  3 38  1  0  0  0  0
  4 44  1  0  0  0  0
  5 17  2  0  0  0  0
  6 27  1  0  0  0  0
  6 49  1  0  0  0  0
  7  8  1  0  0  0  0
  7  9  1  0  0  0  0
  7 28  1  0  0  0  0
  7 29  1  0  0  0  0
  8 12  1  0  0  0  0
  8 30  1  0  0  0  0
  9 10  1  0  0  0  0
  9 11  2  0  0  0  0
 10 13  2  0  0  0  0
 11 14  1  0  0  0  0
 12 16  1  0  0  0  0
 12 18  2  0  0  0  0
 13 15  1  0  0  0  0
 13 17  1  0  0  0  0
 14 15  2  0  0  0  0
 14 31  1  0  0  0  0
 15 32  1  0  0  0  0
 16 33  1  0  0  0  0
 16 34  1  0  0  0  0
 16 35  1  0  0  0  0
 17 19  1  0  0  0  0
 18 36  1  0  0  0  0
 18 37  1  0  0  0  0
 19 21  2  0  0  0  0
 19 39  1  0  0  0  0
 20 40  1  0  0  0  0
 20 41  1  0  0  0  0
 20 42  1  0  0  0  0
 21 22  1  0  0  0  0
 21 43  1  0  0  0  0
 22 23  2  0  0  0  0
 22 24  1  0  0  0  0
 23 25  1  0  0  0  0
 23 45  1  0  0  0  0
 24 26  2  0  0  0  0
 24 46  1  0  0  0  0
 25 27  2  0  0  0  0
 25 47  1  0  0  0  0
 26 27  1  0  0  0  0
 26 48  1  0  0  0  0
M  END
> <PUBCHEM_COMPOUND_CID>
10022050

> <PUBCHEM_CONFORMER_RMSD>
0.8

> <PUBCHEM_CONFORMER_DIVERSEORDER>
3
116
135
29
32
90
147
119
162
30
156
2
128
61
138
66
31
152
58
68
168
76
148
163
130
151
1
159
122
166
149
102
120
94
144
84
78
157
129
22
83
126
39
85
173
88
123
34
77
137
23
57
140
165
131
99
48
9
95
89
133
142
14
81
113
98
153
42
19
55
64
132
10
105
154
118
136
17
35
16
72
62
47
125
21
111
4
158
172
96
60
108
110
170
115
104
65
134
5
7
124
169
79
93
13
92
38
75
12
8
40
160
141
26
97
11
164
69
44
107
101
114
139
18
51
15
80
67
56
54
117
167
109
71
28
46
6
127
143
59
63
106
103
45
53
73
155
25
20
43
27
86
49
41
36
33
112
24
82
52
161
171
74
91
146
121
100
50
87
145
37
70
150

> <PUBCHEM_MMFF94_PARTIAL_CHARGES>
40
1 -0.28
10 0.08
11 0.08
12 -0.28
13 0.09
14 -0.15
15 -0.15
16 0.14
17 0.47
18 -0.3
19 -0.14
2 -0.36
20 0.28
21 -0.18
22 0.03
23 -0.15
24 -0.15
25 -0.15
26 -0.15
27 0.08
3 -0.53
31 0.15
32 0.15
36 0.15
37 0.15
38 0.45
39 0.15
4 -0.4
43 0.15
44 0.4
45 0.15
46 0.15
47 0.15
48 0.15
49 0.45
5 -0.57
6 -0.53
7 0.14
8 0.42
9 -0.14

> <PUBCHEM_EFFECTIVE_ROTOR_COUNT>
8

> <PUBCHEM_PHARMACOPHORE_FEATURES>
6
1 2 acceptor
1 3 donor
1 5 acceptor
1 6 donor
6 22 23 24 25 26 27 rings
6 9 10 11 13 14 15 rings

> <PUBCHEM_HEAVY_ATOM_COUNT>
27

> <PUBCHEM_ATOM_DEF_STEREO_COUNT>
0

> <PUBCHEM_ATOM_UDEF_STEREO_COUNT>
1

> <PUBCHEM_BOND_DEF_STEREO_COUNT>
1

> <PUBCHEM_BOND_UDEF_STEREO_COUNT>
0

> <PUBCHEM_ISOTOPIC_ATOM_COUNT>
0

> <PUBCHEM_COMPONENT_COUNT>
1

> <PUBCHEM_CACTVS_TAUTO_COUNT>
21

> <PUBCHEM_CONFORMER_ID>
0098ECA200000003

> <PUBCHEM_MMFF94_ENERGY>
85.1956

> <PUBCHEM_FEATURE_SELFOVERLAP>
30.447

> <PUBCHEM_SHAPE_FINGERPRINT>
10 15 18113897203931169280
10050765 1 18194118508301352824
10165383 225 18411697725644948424
10319688 140 18129667370428621966
10411042 1 17906733601738475554
10595046 47 18413388714166570385
10835480 77 18263353721291041349
10906281 52 18113630009477708866
11135926 11 18339628001664679366
11315181 36 18413671323690055769
11719270 70 18409162225465186482
11963148 33 18334006224856873171
12166972 35 11025796487871202038
12236239 1 17846499227483315537
12516196 113 18410011031562854757
12730499 353 18411982451447548482
13073987 5 18339643339789133617
13383665 225 17823713970553760965
13533116 47 18272084951279106899
13899415 154 17704071806661944849
14251764 18 18407758153891447065
14341114 176 18341613677489657627
14461889 52 18261111897905403427
1454969 45 18336825385575510813
14790565 3 18193838373781420684
14849402 71 18268993253447332481
14933364 13 18272652355161047577
15537594 2 18202556285540294247
16990366 60 17903070037258022690
16992610 120 18263936591687864780
18608769 82 18411134783964768723
20567600 234 15140965079976899340
20771845 171 17749400248028928582
21130935 74 18339081485274328419
21267235 1 18341331072805231478
21344244 181 17704084975580437438
21344244 246 18128549159378214190
21521721 280 18342175626346979928
21781055 127 13190601834515290197
220451 1 17989481927525853335
22149856 69 18339369574009863289
22224240 67 18334572468975175105
22899556 105 18055372240817422870
22956985 138 17462547426655557306
23559900 14 18410567397795667689
24771293 8 17914596479660282104
3178227 256 18341051912383234201
34797466 226 18131637789627529068
3663271 9 18271808987230311649
4073 2 18261115197110387947
4093350 32 17275106119977201758
4325135 7 17821449062362042399
4340502 62 17240197729622995138
4461854 278 17986121923266933599
504579 68 18059281146329369741
5104073 3 18198052587149599825
5109719 28 18338524143778159848
5758199 1 18342737450733827609
59682541 35 18187643651923972601
59755656 215 18410857659151423855
59755656 520 13542458757779662997
8988823 20 13912325694428201734

> <PUBCHEM_SHAPE_MULTIPOLES>
520.43
21.76
2.81
0.9
28.31
2.13
-0.09
-5.75
1.68
-4.17
0.04
-1.29
-0.08
0.22

> <PUBCHEM_SHAPE_SELFOVERLAP>
1103.497

> <PUBCHEM_SHAPE_VOLUME>
291.4

> <PUBCHEM_COORDINATE_TYPE>
2
5
10

$$$$
