25-Hydroxycholesterol, 3-methyl ether 2D
  -OEChem-12152007192D

 78 81  0     1  0  0  0  0  0999 V2000
    2.8641   -3.8268    0.0000 O   0  0  0  0  0  0  0  0  0  0  0  0
   12.4031    3.7448    0.0000 O   0  0  0  0  0  0  0  0  0  0  0  0
    8.2572   -0.7745    0.0000 C   0  0  3  0  0  0  0  0  0  0  0  0
    8.2572   -1.7745    0.0000 C   0  0  3  0  0  0  0  0  0  0  0  0
    7.3912   -2.2745    0.0000 C   0  0  3  0  0  0  0  0  0  0  0  0
    6.5251   -1.7745    0.0000 C   0  0  3  0  0  0  0  0  0  0  0  0
    9.2034   -0.4697    0.0000 C   0  0  3  0  0  0  0  0  0  0  0  0
    7.3912   -0.2745    0.0000 C   0  0  0  0  0  0  0  0  0  0  0  0
    5.6151   -2.2813    0.0000 C   0  0  3  0  0  0  0  0  0  0  0  0
    9.2034   -2.0792    0.0000 C   0  0  0  0  0  0  0  0  0  0  0  0
    6.5251   -0.7745    0.0000 C   0  0  0  0  0  0  0  0  0  0  0  0
    9.7870   -1.2745    0.0000 C   0  0  0  0  0  0  0  0  0  0  0  0
    7.4072   -3.3160    0.0000 C   0  0  0  0  0  0  0  0  0  0  0  0
    9.5141    0.4808    0.0000 C   0  0  3  0  0  0  0  0  0  0  0  0
    8.2572    0.2255    0.0000 C   0  0  0  0  0  0  0  0  0  0  0  0
    5.6071   -3.3229    0.0000 C   0  0  0  0  0  0  0  0  0  0  0  0
    4.6883   -1.7172    0.0000 C   0  0  0  0  0  0  0  0  0  0  0  0
    6.5092   -3.8437    0.0000 C   0  0  0  0  0  0  0  0  0  0  0  0
    5.6228   -1.2813    0.0000 C   0  0  0  0  0  0  0  0  0  0  0  0
    4.6717   -3.8726    0.0000 C   0  0  0  0  0  0  0  0  0  0  0  0
    3.7404   -2.2452    0.0000 C   0  0  0  0  0  0  0  0  0  0  0  0
   10.4926    0.6870    0.0000 C   0  0  0  0  0  0  0  0  0  0  0  0
    3.7320   -3.3301    0.0000 C   0  0  3  0  0  0  0  0  0  0  0  0
    8.8462    1.2251    0.0000 C   0  0  0  0  0  0  0  0  0  0  0  0
   10.8032    1.6375    0.0000 C   0  0  0  0  0  0  0  0  0  0  0  0
   11.7817    1.8437    0.0000 C   0  0  0  0  0  0  0  0  0  0  0  0
   12.0924    2.7943    0.0000 C   0  0  0  0  0  0  0  0  0  0  0  0
    2.0000   -3.3235    0.0000 C   0  0  0  0  0  0  0  0  0  0  0  0
   13.0429    2.4836    0.0000 C   0  0  0  0  0  0  0  0  0  0  0  0
   11.1419    3.1049    0.0000 C   0  0  0  0  0  0  0  0  0  0  0  0
    8.3228   -2.3910    0.0000 H   0  0  0  0  0  0  0  0  0  0  0  0
    7.9305   -2.5803    0.0000 H   0  0  0  0  0  0  0  0  0  0  0  0
    7.0621   -1.4645    0.0000 H   0  0  0  0  0  0  0  0  0  0  0  0
    9.8159   -0.3735    0.0000 H   0  0  0  0  0  0  0  0  0  0  0  0
    7.7897    0.2005    0.0000 H   0  0  0  0  0  0  0  0  0  0  0  0
    6.9926    0.2005    0.0000 H   0  0  0  0  0  0  0  0  0  0  0  0
    8.9524   -2.6461    0.0000 H   0  0  0  0  0  0  0  0  0  0  0  0
    9.7408   -2.3884    0.0000 H   0  0  0  0  0  0  0  0  0  0  0  0
    6.3131   -0.1919    0.0000 H   0  0  0  0  0  0  0  0  0  0  0  0
    5.9145   -0.8821    0.0000 H   0  0  0  0  0  0  0  0  0  0  0  0
   10.2479   -1.6892    0.0000 H   0  0  0  0  0  0  0  0  0  0  0  0
   10.2479   -0.8597    0.0000 H   0  0  0  0  0  0  0  0  0  0  0  0
    7.6252   -3.8964    0.0000 H   0  0  0  0  0  0  0  0  0  0  0  0
    8.0164   -3.2005    0.0000 H   0  0  0  0  0  0  0  0  0  0  0  0
    9.7067    1.0701    0.0000 H   0  0  0  0  0  0  0  0  0  0  0  0
    8.8772    0.2255    0.0000 H   0  0  0  0  0  0  0  0  0  0  0  0
    8.2572    0.8455    0.0000 H   0  0  0  0  0  0  0  0  0  0  0  0
    7.6372    0.2255    0.0000 H   0  0  0  0  0  0  0  0  0  0  0  0
    5.0965   -1.2506    0.0000 H   0  0  0  0  0  0  0  0  0  0  0  0
    4.2984   -1.2352    0.0000 H   0  0  0  0  0  0  0  0  0  0  0  0
    6.5116   -4.4637    0.0000 H   0  0  0  0  0  0  0  0  0  0  0  0
    6.2428   -1.2861    0.0000 H   0  0  0  0  0  0  0  0  0  0  0  0
    5.6276   -0.6614    0.0000 H   0  0  0  0  0  0  0  0  0  0  0  0
    5.0028   -1.2766    0.0000 H   0  0  0  0  0  0  0  0  0  0  0  0
    4.2744   -4.3486    0.0000 H   0  0  0  0  0  0  0  0  0  0  0  0
    5.0726   -4.3455    0.0000 H   0  0  0  0  0  0  0  0  0  0  0  0
    3.5358   -1.6599    0.0000 H   0  0  0  0  0  0  0  0  0  0  0  0
    3.1288   -2.3466    0.0000 H   0  0  0  0  0  0  0  0  0  0  0  0
   10.5131    0.0673    0.0000 H   0  0  0  0  0  0  0  0  0  0  0  0
   11.1064    0.5997    0.0000 H   0  0  0  0  0  0  0  0  0  0  0  0
    3.7308   -3.9501    0.0000 H   0  0  0  0  0  0  0  0  0  0  0  0
    9.3077    1.6392    0.0000 H   0  0  0  0  0  0  0  0  0  0  0  0
    8.4322    1.6866    0.0000 H   0  0  0  0  0  0  0  0  0  0  0  0
    8.3848    0.8110    0.0000 H   0  0  0  0  0  0  0  0  0  0  0  0
   10.7827    2.2572    0.0000 H   0  0  0  0  0  0  0  0  0  0  0  0
   10.1894    1.7249    0.0000 H   0  0  0  0  0  0  0  0  0  0  0  0
   11.8023    1.2241    0.0000 H   0  0  0  0  0  0  0  0  0  0  0  0
   12.3955    1.7564    0.0000 H   0  0  0  0  0  0  0  0  0  0  0  0
    2.3121   -2.7877    0.0000 H   0  0  0  0  0  0  0  0  0  0  0  0
    1.4643   -3.0114    0.0000 H   0  0  0  0  0  0  0  0  0  0  0  0
    1.6879   -3.8592    0.0000 H   0  0  0  0  0  0  0  0  0  0  0  0
   12.8503    1.8943    0.0000 H   0  0  0  0  0  0  0  0  0  0  0  0
   13.6322    2.2910    0.0000 H   0  0  0  0  0  0  0  0  0  0  0  0
   13.2355    3.0729    0.0000 H   0  0  0  0  0  0  0  0  0  0  0  0
   11.3345    3.6942    0.0000 H   0  0  0  0  0  0  0  0  0  0  0  0
   10.5526    3.2975    0.0000 H   0  0  0  0  0  0  0  0  0  0  0  0
   10.9493    2.5156    0.0000 H   0  0  0  0  0  0  0  0  0  0  0  0
   13.0097    3.8726    0.0000 H   0  0  0  0  0  0  0  0  0  0  0  0
  1 23  1  0  0  0  0
  1 28  1  0  0  0  0
  2 27  1  0  0  0  0
  2 78  1  0  0  0  0
  3  4  1  0  0  0  0
  3  7  1  0  0  0  0
  3  8  1  0  0  0  0
  3 15  1  0  0  0  0
  4  5  1  0  0  0  0
  4 10  1  0  0  0  0
  4 31  1  0  0  0  0
  5  6  1  0  0  0  0
  5 13  1  0  0  0  0
  5 32  1  0  0  0  0
  6  9  1  0  0  0  0
  6 11  1  0  0  0  0
  6 33  1  0  0  0  0
  7 12  1  0  0  0  0
  7 14  1  0  0  0  0
  7 34  1  0  0  0  0
  8 11  1  0  0  0  0
  8 35  1  0  0  0  0
  8 36  1  0  0  0  0
  9 16  1  0  0  0  0
  9 17  1  0  0  0  0
  9 19  1  0  0  0  0
 10 12  1  0  0  0  0
 10 37  1  0  0  0  0
 10 38  1  0  0  0  0
 11 39  1  0  0  0  0
 11 40  1  0  0  0  0
 12 41  1  0  0  0  0
 12 42  1  0  0  0  0
 13 18  1  0  0  0  0
 13 43  1  0  0  0  0
 13 44  1  0  0  0  0
 14 22  1  0  0  0  0
 14 24  1  0  0  0  0
 14 45  1  0  0  0  0
 15 46  1  0  0  0  0
 15 47  1  0  0  0  0
 15 48  1  0  0  0  0
 16 18  2  0  0  0  0
 16 20  1  0  0  0  0
 17 21  1  0  0  0  0
 17 49  1  0  0  0  0
 17 50  1  0  0  0  0
 18 51  1  0  0  0  0
 19 52  1  0  0  0  0
 19 53  1  0  0  0  0
 19 54  1  0  0  0  0
 20 23  1  0  0  0  0
 20 55  1  0  0  0  0
 20 56  1  0  0  0  0
 21 23  1  0  0  0  0
 21 57  1  0  0  0  0
 21 58  1  0  0  0  0
 22 25  1  0  0  0  0
 22 59  1  0  0  0  0
 22 60  1  0  0  0  0
 23 61  1  0  0  0  0
 24 62  1  0  0  0  0
 24 63  1  0  0  0  0
 24 64  1  0  0  0  0
 25 26  1  0  0  0  0
 25 65  1  0  0  0  0
 25 66  1  0  0  0  0
 26 27  1  0  0  0  0
 26 67  1  0  0  0  0
 26 68  1  0  0  0  0
 27 29  1  0  0  0  0
 27 30  1  0  0  0  0
 28 69  1  0  0  0  0
 28 70  1  0  0  0  0
 28 71  1  0  0  0  0
 29 72  1  0  0  0  0
 29 73  1  0  0  0  0
 29 74  1  0  0  0  0
 30 75  1  0  0  0  0
 30 76  1  0  0  0  0
 30 77  1  0  0  0  0
M  END
> <PUBCHEM_COMPOUND_CID>
91694032

> <PUBCHEM_COMPOUND_CANONICALIZED>
1

> <PUBCHEM_CACTVS_COMPLEXITY>
651

> <PUBCHEM_CACTVS_HBOND_ACCEPTOR>
2

> <PUBCHEM_CACTVS_HBOND_DONOR>
1

> <PUBCHEM_CACTVS_ROTATABLE_BOND>
6

> <PUBCHEM_CACTVS_SUBSKEYS>
AAADcfB4MAAAAAAAAAAAAAAAAAAAAYAAAAAwYIAAAAAAAGCAAAAAGgAACAAAD1SggAICAAAABgCAAiBCAAAAAAAgAAAACAAAAAgAAAIAAQAAQAAEwAAIAAOAwPAPgAAAAAAAAADAAAQAACAAAQAACAAAAA==

> <PUBCHEM_IUPAC_OPENEYE_NAME>
6-(3-methoxy-10,13-dimethyl-2,3,4,7,8,9,11,12,14,15,16,17-dodecahydro-1H-cyclopenta[a]phenanthren-17-yl)-2-methyl-heptan-2-ol

> <PUBCHEM_IUPAC_CAS_NAME>
6-(3-methoxy-10,13-dimethyl-2,3,4,7,8,9,11,12,14,15,16,17-dodecahydro-1H-cyclopenta[a]phenanthren-17-yl)-2-methyl-2-heptanol

> <PUBCHEM_IUPAC_NAME_MARKUP>
6-(3-methoxy-10,13-dimethyl-2,3,4,7,8,9,11,12,14,15,16,17-dodecahydro-1<I>H</I>-cyclopenta[a]phenanthren-17-yl)-2-methylheptan-2-ol

> <PUBCHEM_IUPAC_NAME>
6-(3-methoxy-10,13-dimethyl-2,3,4,7,8,9,11,12,14,15,16,17-dodecahydro-1H-cyclopenta[a]phenanthren-17-yl)-2-methylheptan-2-ol

> <PUBCHEM_IUPAC_SYSTEMATIC_NAME>
6-(3-methoxy-10,13-dimethyl-2,3,4,7,8,9,11,12,14,15,16,17-dodecahydro-1H-cyclopenta[a]phenanthren-17-yl)-2-methyl-heptan-2-ol

> <PUBCHEM_IUPAC_TRADITIONAL_NAME>
6-(3-methoxy-10,13-dimethyl-2,3,4,7,8,9,11,12,14,15,16,17-dodecahydro-1H-cyclopenta[a]phenanthren-17-yl)-2-methyl-heptan-2-ol

> <PUBCHEM_IUPAC_INCHI>
InChI=1S/C28H48O2/c1-19(8-7-15-26(2,3)29)23-11-12-24-22-10-9-20-18-21(30-6)13-16-27(20,4)25(22)14-17-28(23,24)5/h9,19,21-25,29H,7-8,10-18H2,1-6H3

> <PUBCHEM_IUPAC_INCHIKEY>
ICKQMIJINGRWRF-UHFFFAOYSA-N

> <PUBCHEM_XLOGP3_AA>
7.3

> <PUBCHEM_EXACT_MASS>
416.365431

> <PUBCHEM_MOLECULAR_FORMULA>
C28H48O2

> <PUBCHEM_MOLECULAR_WEIGHT>
416.7

> <PUBCHEM_OPENEYE_CAN_SMILES>
CC(CCCC(C)(C)O)C1CCC2C1(CCC3C2CC=C4C3(CCC(C4)OC)C)C

> <PUBCHEM_OPENEYE_ISO_SMILES>
CC(CCCC(C)(C)O)C1CCC2C1(CCC3C2CC=C4C3(CCC(C4)OC)C)C

> <PUBCHEM_CACTVS_TPSA>
29.5

> <PUBCHEM_MONOISOTOPIC_WEIGHT>
416.365431

> <PUBCHEM_TOTAL_CHARGE>
0

> <PUBCHEM_HEAVY_ATOM_COUNT>
30

> <PUBCHEM_ATOM_DEF_STEREO_COUNT>
0

> <PUBCHEM_ATOM_UDEF_STEREO_COUNT>
8

> <PUBCHEM_BOND_DEF_STEREO_COUNT>
0

> <PUBCHEM_BOND_UDEF_STEREO_COUNT>
0

> <PUBCHEM_ISOTOPIC_ATOM_COUNT>
0

> <PUBCHEM_COMPONENT_COUNT>
1

> <PUBCHEM_CACTVS_TAUTO_COUNT>
-1

> <PUBCHEM_COORDINATE_TYPE>
1
5
255

> <PUBCHEM_BONDANNOTATIONS>
23  1  3
14  24  3
3  15  3
4  10  3
5  13  3
6  11  3
7  12  3
9  19  3

$$$$
