9,19-Cyclocholestan-3-ol, 14-methyl-, (3.beta)
  -OEChem-12152006492D

 77 81  0     1  0  0  0  0  0999 V2000
    2.5381   -3.6815    0.0000 O   0  0  0  0  0  0  0  0  0  0  0  0
    6.0682   -1.6573    0.0000 C   0  0  3  0  0  0  0  0  0  0  0  0
    5.2022   -2.1573    0.0000 C   0  0  3  0  0  0  0  0  0  0  0  0
    5.2020   -1.1569    0.0000 C   0  0  0  0  0  0  0  0  0  0  0  0
    6.9343   -2.1573    0.0000 C   0  0  3  0  0  0  0  0  0  0  0  0
    7.8443   -1.6505    0.0000 C   0  0  3  0  0  0  0  0  0  0  0  0
    5.2022   -3.1573    0.0000 C   0  0  3  0  0  0  0  0  0  0  0  0
    6.0522   -0.6158    0.0000 C   0  0  0  0  0  0  0  0  0  0  0  0
    7.8523   -0.6089    0.0000 C   0  0  3  0  0  0  0  0  0  0  0  0
    4.3083   -1.6227    0.0000 C   0  0  0  0  0  0  0  0  0  0  0  0
    6.9343   -3.1573    0.0000 C   0  0  0  0  0  0  0  0  0  0  0  0
    6.9502   -0.0881    0.0000 C   0  0  0  0  0  0  0  0  0  0  0  0
    6.0682   -3.6573    0.0000 C   0  0  0  0  0  0  0  0  0  0  0  0
    8.8403   -0.2991    0.0000 C   0  0  3  0  0  0  0  0  0  0  0  0
    8.8274   -1.9755    0.0000 C   0  0  0  0  0  0  0  0  0  0  0  0
    4.3083   -3.6920    0.0000 C   0  0  0  0  0  0  0  0  0  0  0  0
    9.4418   -1.1420    0.0000 C   0  0  0  0  0  0  0  0  0  0  0  0
    3.4022   -2.1365    0.0000 C   0  0  0  0  0  0  0  0  0  0  0  0
    7.8366   -2.6505    0.0000 C   0  0  0  0  0  0  0  0  0  0  0  0
    3.4022   -3.1781    0.0000 C   0  0  3  0  0  0  0  0  0  0  0  0
    7.8600    0.3911    0.0000 C   0  0  0  0  0  0  0  0  0  0  0  0
    9.1583    0.6490    0.0000 C   0  0  3  0  0  0  0  0  0  0  0  0
   10.1384    0.8477    0.0000 C   0  0  0  0  0  0  0  0  0  0  0  0
    8.4962    1.3985    0.0000 C   0  0  0  0  0  0  0  0  0  0  0  0
   10.4564    1.7958    0.0000 C   0  0  0  0  0  0  0  0  0  0  0  0
   11.4364    1.9945    0.0000 C   0  0  0  0  0  0  0  0  0  0  0  0
   11.7544    2.9426    0.0000 C   0  0  0  0  0  0  0  0  0  0  0  0
   12.7345    3.1412    0.0000 C   0  0  0  0  0  0  0  0  0  0  0  0
   11.0923    3.6920    0.0000 C   0  0  0  0  0  0  0  0  0  0  0  0
    5.4141   -0.5743    0.0000 H   0  0  0  0  0  0  0  0  0  0  0  0
    4.5914   -1.0493    0.0000 H   0  0  0  0  0  0  0  0  0  0  0  0
    7.4688   -2.4715    0.0000 H   0  0  0  0  0  0  0  0  0  0  0  0
    5.2070   -3.7773    0.0000 H   0  0  0  0  0  0  0  0  0  0  0  0
    5.8342   -0.0354    0.0000 H   0  0  0  0  0  0  0  0  0  0  0  0
    5.4431   -0.7313    0.0000 H   0  0  0  0  0  0  0  0  0  0  0  0
    4.7129   -1.1529    0.0000 H   0  0  0  0  0  0  0  0  0  0  0  0
    3.9147   -1.1436    0.0000 H   0  0  0  0  0  0  0  0  0  0  0  0
    7.1463   -3.7399    0.0000 H   0  0  0  0  0  0  0  0  0  0  0  0
    7.5449   -3.0497    0.0000 H   0  0  0  0  0  0  0  0  0  0  0  0
    7.3475    0.3879    0.0000 H   0  0  0  0  0  0  0  0  0  0  0  0
    6.5493    0.3848    0.0000 H   0  0  0  0  0  0  0  0  0  0  0  0
    5.6697   -4.1323    0.0000 H   0  0  0  0  0  0  0  0  0  0  0  0
    6.4668   -4.1323    0.0000 H   0  0  0  0  0  0  0  0  0  0  0  0
    9.4536   -0.2076    0.0000 H   0  0  0  0  0  0  0  0  0  0  0  0
    8.5720   -2.5404    0.0000 H   0  0  0  0  0  0  0  0  0  0  0  0
    9.3624   -2.2888    0.0000 H   0  0  0  0  0  0  0  0  0  0  0  0
    3.9147   -4.1710    0.0000 H   0  0  0  0  0  0  0  0  0  0  0  0
    4.7129   -4.1618    0.0000 H   0  0  0  0  0  0  0  0  0  0  0  0
    9.8994   -1.5602    0.0000 H   0  0  0  0  0  0  0  0  0  0  0  0
    9.9058   -0.7308    0.0000 H   0  0  0  0  0  0  0  0  0  0  0  0
    3.1932   -1.5528    0.0000 H   0  0  0  0  0  0  0  0  0  0  0  0
    2.7914   -2.2426    0.0000 H   0  0  0  0  0  0  0  0  0  0  0  0
    7.2166   -2.6457    0.0000 H   0  0  0  0  0  0  0  0  0  0  0  0
    7.8318   -3.2704    0.0000 H   0  0  0  0  0  0  0  0  0  0  0  0
    8.4566   -2.6552    0.0000 H   0  0  0  0  0  0  0  0  0  0  0  0
    3.4058   -3.7981    0.0000 H   0  0  0  0  0  0  0  0  0  0  0  0
    8.4800    0.3863    0.0000 H   0  0  0  0  0  0  0  0  0  0  0  0
    7.8648    1.0111    0.0000 H   0  0  0  0  0  0  0  0  0  0  0  0
    7.2400    0.3959    0.0000 H   0  0  0  0  0  0  0  0  0  0  0  0
    9.3555    1.2368    0.0000 H   0  0  0  0  0  0  0  0  0  0  0  0
   10.1542    0.2279    0.0000 H   0  0  0  0  0  0  0  0  0  0  0  0
   10.7515    0.7556    0.0000 H   0  0  0  0  0  0  0  0  0  0  0  0
    8.9609    1.8090    0.0000 H   0  0  0  0  0  0  0  0  0  0  0  0
    8.0857    1.8631    0.0000 H   0  0  0  0  0  0  0  0  0  0  0  0
    8.0316    0.9880    0.0000 H   0  0  0  0  0  0  0  0  0  0  0  0
    2.0000   -3.3736    0.0000 H   0  0  0  0  0  0  0  0  0  0  0  0
   10.4406    2.4156    0.0000 H   0  0  0  0  0  0  0  0  0  0  0  0
    9.8432    1.8879    0.0000 H   0  0  0  0  0  0  0  0  0  0  0  0
   11.4522    1.3747    0.0000 H   0  0  0  0  0  0  0  0  0  0  0  0
   12.0496    1.9024    0.0000 H   0  0  0  0  0  0  0  0  0  0  0  0
   12.1649    2.4779    0.0000 H   0  0  0  0  0  0  0  0  0  0  0  0
   12.8577    2.5336    0.0000 H   0  0  0  0  0  0  0  0  0  0  0  0
   13.3421    3.2644    0.0000 H   0  0  0  0  0  0  0  0  0  0  0  0
   12.6113    3.7489    0.0000 H   0  0  0  0  0  0  0  0  0  0  0  0
   11.5570    4.1025    0.0000 H   0  0  0  0  0  0  0  0  0  0  0  0
   10.6818    4.1566    0.0000 H   0  0  0  0  0  0  0  0  0  0  0  0
   10.6277    3.2815    0.0000 H   0  0  0  0  0  0  0  0  0  0  0  0
  1 20  1  0  0  0  0
  1 66  1  0  0  0  0
  2  3  1  0  0  0  0
  2  4  1  0  0  0  0
  2  5  1  0  0  0  0
  2  8  1  0  0  0  0
  3  4  1  0  0  0  0
  3  7  1  0  0  0  0
  3 10  1  0  0  0  0
  4 30  1  0  0  0  0
  4 31  1  0  0  0  0
  5  6  1  0  0  0  0
  5 11  1  0  0  0  0
  5 32  1  0  0  0  0
  6  9  1  0  0  0  0
  6 15  1  0  0  0  0
  6 19  1  0  0  0  0
  7 13  1  0  0  0  0
  7 16  1  0  0  0  0
  7 33  1  0  0  0  0
  8 12  1  0  0  0  0
  8 34  1  0  0  0  0
  8 35  1  0  0  0  0
  9 12  1  0  0  0  0
  9 14  1  0  0  0  0
  9 21  1  0  0  0  0
 10 18  1  0  0  0  0
 10 36  1  0  0  0  0
 10 37  1  0  0  0  0
 11 13  1  0  0  0  0
 11 38  1  0  0  0  0
 11 39  1  0  0  0  0
 12 40  1  0  0  0  0
 12 41  1  0  0  0  0
 13 42  1  0  0  0  0
 13 43  1  0  0  0  0
 14 17  1  0  0  0  0
 14 22  1  0  0  0  0
 14 44  1  0  0  0  0
 15 17  1  0  0  0  0
 15 45  1  0  0  0  0
 15 46  1  0  0  0  0
 16 20  1  0  0  0  0
 16 47  1  0  0  0  0
 16 48  1  0  0  0  0
 17 49  1  0  0  0  0
 17 50  1  0  0  0  0
 18 20  1  0  0  0  0
 18 51  1  0  0  0  0
 18 52  1  0  0  0  0
 19 53  1  0  0  0  0
 19 54  1  0  0  0  0
 19 55  1  0  0  0  0
 20 56  1  0  0  0  0
 21 57  1  0  0  0  0
 21 58  1  0  0  0  0
 21 59  1  0  0  0  0
 22 23  1  0  0  0  0
 22 24  1  0  0  0  0
 22 60  1  0  0  0  0
 23 25  1  0  0  0  0
 23 61  1  0  0  0  0
 23 62  1  0  0  0  0
 24 63  1  0  0  0  0
 24 64  1  0  0  0  0
 24 65  1  0  0  0  0
 25 26  1  0  0  0  0
 25 67  1  0  0  0  0
 25 68  1  0  0  0  0
 26 27  1  0  0  0  0
 26 69  1  0  0  0  0
 26 70  1  0  0  0  0
 27 28  1  0  0  0  0
 27 29  1  0  0  0  0
 27 71  1  0  0  0  0
 28 72  1  0  0  0  0
 28 73  1  0  0  0  0
 28 74  1  0  0  0  0
 29 75  1  0  0  0  0
 29 76  1  0  0  0  0
 29 77  1  0  0  0  0
M  END
> <PUBCHEM_COMPOUND_CID>
565570

> <PUBCHEM_COMPOUND_CANONICALIZED>
1

> <PUBCHEM_CACTVS_COMPLEXITY>
640

> <PUBCHEM_CACTVS_HBOND_ACCEPTOR>
1

> <PUBCHEM_CACTVS_HBOND_DONOR>
1

> <PUBCHEM_CACTVS_ROTATABLE_BOND>
5

> <PUBCHEM_CACTVS_SUBSKEYS>
AAADcfB4IAAAAAAAAAAAAAAAGAAAAYAAAAAwYMAABgAAAGDAAAAAGgAACAAADxSggAICAAAAAgAAAAAAAAAAAAAAAAAAAAAAAAAAEAIAAAAAQAAEAAAAAAGAwPAPgAAAAAAAAADAAAYAACAAAQAACAAAAA==

> <PUBCHEM_IUPAC_OPENEYE_NAME>
15-(1,5-dimethylhexyl)-12,16-dimethyl-pentacyclo[9.7.0.01,3.03,8.012,16]octadecan-6-ol

> <PUBCHEM_IUPAC_CAS_NAME>
12,16-dimethyl-15-(6-methylheptan-2-yl)-6-pentacyclo[9.7.0.01,3.03,8.012,16]octadecanol

> <PUBCHEM_IUPAC_NAME_MARKUP>
12,16-dimethyl-15-(6-methylheptan-2-yl)pentacyclo[9.7.0.0<SUP>1,3</SUP>.0<SUP>3,8</SUP>.0<SUP>12,16</SUP>]octadecan-6-ol

> <PUBCHEM_IUPAC_NAME>
12,16-dimethyl-15-(6-methylheptan-2-yl)pentacyclo[9.7.0.01,3.03,8.012,16]octadecan-6-ol

> <PUBCHEM_IUPAC_SYSTEMATIC_NAME>
12,16-dimethyl-15-(6-methylheptan-2-yl)pentacyclo[9.7.0.01,3.03,8.012,16]octadecan-6-ol

> <PUBCHEM_IUPAC_TRADITIONAL_NAME>
15-(1,5-dimethylhexyl)-12,16-dimethyl-pentacyclo[9.7.0.01,3.03,8.012,16]octadecan-6-ol

> <PUBCHEM_IUPAC_INCHI>
InChI=1S/C28H48O/c1-19(2)7-6-8-20(3)23-12-13-26(5)24-10-9-21-17-22(29)11-14-27(21)18-28(24,27)16-15-25(23,26)4/h19-24,29H,6-18H2,1-5H3

> <PUBCHEM_IUPAC_INCHIKEY>
HXQRIQXPGMPSRW-UHFFFAOYSA-N

> <PUBCHEM_XLOGP3_AA>
9.4

> <PUBCHEM_EXACT_MASS>
400.370516

> <PUBCHEM_MOLECULAR_FORMULA>
C28H48O

> <PUBCHEM_MOLECULAR_WEIGHT>
400.7

> <PUBCHEM_OPENEYE_CAN_SMILES>
CC(C)CCCC(C)C1CCC2(C1(CCC34C2CCC5C3(C4)CCC(C5)O)C)C

> <PUBCHEM_OPENEYE_ISO_SMILES>
CC(C)CCCC(C)C1CCC2(C1(CCC34C2CCC5C3(C4)CCC(C5)O)C)C

> <PUBCHEM_CACTVS_TPSA>
20.2

> <PUBCHEM_MONOISOTOPIC_WEIGHT>
400.370516

> <PUBCHEM_TOTAL_CHARGE>
0

> <PUBCHEM_HEAVY_ATOM_COUNT>
29

> <PUBCHEM_ATOM_DEF_STEREO_COUNT>
0

> <PUBCHEM_ATOM_UDEF_STEREO_COUNT>
9

> <PUBCHEM_BOND_DEF_STEREO_COUNT>
0

> <PUBCHEM_BOND_UDEF_STEREO_COUNT>
0

> <PUBCHEM_ISOTOPIC_ATOM_COUNT>
0

> <PUBCHEM_COMPONENT_COUNT>
1

> <PUBCHEM_CACTVS_TAUTO_COUNT>
-1

> <PUBCHEM_COORDINATE_TYPE>
1
5
255

> <PUBCHEM_BONDANNOTATIONS>
20  1  3
14  17  3
2  8  3
22  24  3
3  10  3
5  11  3
6  19  3
7  13  3
9  21  3

$$$$
