beta-phellandrene
  -OEChem-12162005193D

 26 26  0     1  0  0  0  0  0999 V2000
    0.7537    0.0049   -0.3649 C   0  0  2  0  0  0  0  0  0  0  0  0
    2.1112   -0.0328    0.3389 C   0  0  0  0  0  0  0  0  0  0  0  0
    0.0116    1.3189   -0.0244 C   0  0  0  0  0  0  0  0  0  0  0  0
   -0.0513   -1.2338   -0.0575 C   0  0  0  0  0  0  0  0  0  0  0  0
    2.8997   -1.2659   -0.0909 C   0  0  0  0  0  0  0  0  0  0  0  0
    2.8981    1.2410    0.0468 C   0  0  0  0  0  0  0  0  0  0  0  0
   -1.4878    1.2118   -0.0397 C   0  0  0  0  0  0  0  0  0  0  0  0
   -2.1312    0.0339    0.0288 C   0  0  0  0  0  0  0  0  0  0  0  0
   -1.3791   -1.2010    0.1239 C   0  0  0  0  0  0  0  0  0  0  0  0
   -3.6249   -0.0772    0.0391 C   0  0  0  0  0  0  0  0  0  0  0  0
    0.9237   -0.0044   -1.4519 H   0  0  0  0  0  0  0  0  0  0  0  0
    1.9670   -0.0915    1.4264 H   0  0  0  0  0  0  0  0  0  0  0  0
    0.3107    2.0947   -0.7403 H   0  0  0  0  0  0  0  0  0  0  0  0
    0.2852    1.6800    0.9753 H   0  0  0  0  0  0  0  0  0  0  0  0
    0.4238   -2.2085   -0.0415 H   0  0  0  0  0  0  0  0  0  0  0  0
    2.9332   -1.3664   -1.1812 H   0  0  0  0  0  0  0  0  0  0  0  0
    3.9353   -1.2003    0.2627 H   0  0  0  0  0  0  0  0  0  0  0  0
    2.4972   -2.1899    0.3334 H   0  0  0  0  0  0  0  0  0  0  0  0
    2.9959    1.4117   -1.0310 H   0  0  0  0  0  0  0  0  0  0  0  0
    3.9101    1.1705    0.4616 H   0  0  0  0  0  0  0  0  0  0  0  0
    2.4435    2.1289    0.4955 H   0  0  0  0  0  0  0  0  0  0  0  0
   -2.0501    2.1405   -0.0829 H   0  0  0  0  0  0  0  0  0  0  0  0
   -1.9225   -2.1215    0.3134 H   0  0  0  0  0  0  0  0  0  0  0  0
   -3.9704   -0.5518    0.9638 H   0  0  0  0  0  0  0  0  0  0  0  0
   -3.9718   -0.6767   -0.8095 H   0  0  0  0  0  0  0  0  0  0  0  0
   -4.1082    0.9034   -0.0298 H   0  0  0  0  0  0  0  0  0  0  0  0
  1  2  1  0  0  0  0
  1  3  1  0  0  0  0
  1  4  1  0  0  0  0
  1 11  1  0  0  0  0
  2  5  1  0  0  0  0
  2  6  1  0  0  0  0
  2 12  1  0  0  0  0
  3  7  1  0  0  0  0
  3 13  1  0  0  0  0
  3 14  1  0  0  0  0
  4  9  2  0  0  0  0
  4 15  1  0  0  0  0
  5 16  1  0  0  0  0
  5 17  1  0  0  0  0
  5 18  1  0  0  0  0
  6 19  1  0  0  0  0
  6 20  1  0  0  0  0
  6 21  1  0  0  0  0
  7  8  2  0  0  0  0
  7 22  1  0  0  0  0
  8  9  1  0  0  0  0
  8 10  1  0  0  0  0
  9 23  1  0  0  0  0
 10 24  1  0  0  0  0
 10 25  1  0  0  0  0
 10 26  1  0  0  0  0
M  END
> <PUBCHEM_COMPOUND_CID>
443160

> <PUBCHEM_CONFORMER_RMSD>
0.4

> <PUBCHEM_CONFORMER_DIVERSEORDER>
2
5
3
4
1
6

> <PUBCHEM_MMFF94_PARTIAL_CHARGES>
10
1 0.14
10 0.14
15 0.15
22 0.15
23 0.15
3 0.14
4 -0.29
7 -0.29
8 -0.14
9 -0.15

> <PUBCHEM_EFFECTIVE_ROTOR_COUNT>
1.4

> <PUBCHEM_PHARMACOPHORE_FEATURES>
2
3 2 5 6 hydrophobe
6 1 3 4 7 8 9 rings

> <PUBCHEM_HEAVY_ATOM_COUNT>
10

> <PUBCHEM_ATOM_DEF_STEREO_COUNT>
1

> <PUBCHEM_ATOM_UDEF_STEREO_COUNT>
0

> <PUBCHEM_BOND_DEF_STEREO_COUNT>
0

> <PUBCHEM_BOND_UDEF_STEREO_COUNT>
0

> <PUBCHEM_ISOTOPIC_ATOM_COUNT>
0

> <PUBCHEM_COMPONENT_COUNT>
1

> <PUBCHEM_CACTVS_TAUTO_COUNT>
1

> <PUBCHEM_CONFORMER_ID>
0006C31800000002

> <PUBCHEM_MMFF94_ENERGY>
18.3181

> <PUBCHEM_FEATURE_SELFOVERLAP>
10.148

> <PUBCHEM_SHAPE_FINGERPRINT>
10219947 1 18411703188231029263
10857977 72 18337102453625540881
11062470 55 18334574663735267525
12032990 46 18409174298613097435
14325111 11 18410855451707181669
15775835 57 18271809059395513512
16945 1 18409728477905397845
19973954 147 18412264999991970752
20201158 50 18413389808898044390
20871998 184 18128542754574023399
21040471 1 18410295782955650860
23235685 24 18411976983653363777
23402655 69 18195226851552982525
23463225 33 18409166571776878410
23552423 10 18260550034821196462
2748010 2 18337669702756972349
29004967 10 15285352920923968268
369184 2 18411697686066693251
5084963 1 18272648996142798074
7364860 26 18343021103918223108

> <PUBCHEM_SHAPE_MULTIPOLES>
205.8
4.98
1.55
0.64
0.47
0.03
0
-0.08
-0.17
-0.49
0.01
-0.03
0
0.08

> <PUBCHEM_SHAPE_SELFOVERLAP>
406.558

> <PUBCHEM_SHAPE_VOLUME>
122

> <PUBCHEM_COORDINATE_TYPE>
2
5
10

$$$$
