Cryptobeilic-acid-C
  -OEChem-01222105143D

 47 52  0     1  0  0  0  0  0999 V2000
   -4.4475   -2.2530   -1.3994 O   0  0  0  0  0  0  0  0  0  0  0  0
   -4.2203    3.0229    0.9076 O   0  0  0  0  0  0  0  0  0  0  0  0
   -5.0836    2.7880   -1.1971 O   0  0  0  0  0  0  0  0  0  0  0  0
    5.0362    1.6648    1.0367 O   0  0  0  0  0  0  0  0  0  0  0  0
    5.8623    1.3855   -1.2098 O   0  0  0  0  0  0  0  0  0  0  0  0
   -1.1255   -0.9937    1.6398 C   0  0  2  0  0  0  0  0  0  0  0  0
   -0.6856   -2.3158    0.9682 C   0  0  2  0  0  0  0  0  0  0  0  0
   -2.4500   -0.6352    0.9856 C   0  0  2  0  0  0  0  0  0  0  0  0
    0.1284   -0.2766    1.1064 C   0  0  1  0  0  0  0  0  0  0  0  0
    0.5069   -1.5542    0.3064 C   0  0  1  0  0  0  0  0  0  0  0  0
   -2.4530   -1.4032   -0.3408 C   0  0  1  0  0  0  0  0  0  0  0  0
   -1.8560   -2.7367    0.0610 C   0  0  0  0  0  0  0  0  0  0  0  0
   -2.6198    0.8610    0.7260 C   0  0  1  0  0  0  0  0  0  0  0  0
   -0.1180    0.9593    0.3117 C   0  0  0  0  0  0  0  0  0  0  0  0
    1.8831   -2.1274    0.6087 C   0  0  0  0  0  0  0  0  0  0  0  0
   -1.3504    1.4773    0.1714 C   0  0  0  0  0  0  0  0  0  0  0  0
   -3.8460   -1.3078   -0.9032 C   0  0  0  0  0  0  0  0  0  0  0  0
   -3.8225    1.0416   -0.1919 C   0  0  0  0  0  0  0  0  0  0  0  0
   -4.4294    0.0719   -0.9028 C   0  0  0  0  0  0  0  0  0  0  0  0
    2.9521   -1.2022    0.0882 C   0  0  0  0  0  0  0  0  0  0  0  0
   -4.4532    2.3669   -0.2469 C   0  0  0  0  0  0  0  0  0  0  0  0
    3.4552   -0.1910    0.9104 C   0  0  0  0  0  0  0  0  0  0  0  0
    3.4341   -1.3650   -1.2225 C   0  0  0  0  0  0  0  0  0  0  0  0
    4.4324    0.6315    0.3886 C   0  0  0  0  0  0  0  0  0  0  0  0
    4.4245   -0.5184   -1.7263 C   0  0  0  0  0  0  0  0  0  0  0  0
    4.9042    0.4722   -0.8942 C   0  0  0  0  0  0  0  0  0  0  0  0
    5.9411    2.1376    0.0181 C   0  0  0  0  0  0  0  0  0  0  0  0
   -1.1780   -1.0265    2.7341 H   0  0  0  0  0  0  0  0  0  0  0  0
   -0.3834   -3.1017    1.6696 H   0  0  0  0  0  0  0  0  0  0  0  0
   -3.2725   -0.9935    1.6238 H   0  0  0  0  0  0  0  0  0  0  0  0
    0.8083   -0.0534    1.9378 H   0  0  0  0  0  0  0  0  0  0  0  0
    0.3761   -1.4491   -0.7805 H   0  0  0  0  0  0  0  0  0  0  0  0
   -1.7986   -0.9480   -1.0962 H   0  0  0  0  0  0  0  0  0  0  0  0
   -2.5789   -3.3453    0.6166 H   0  0  0  0  0  0  0  0  0  0  0  0
   -1.5160   -3.3178   -0.8017 H   0  0  0  0  0  0  0  0  0  0  0  0
   -2.8084    1.3335    1.6983 H   0  0  0  0  0  0  0  0  0  0  0  0
    0.7373    1.4723   -0.1161 H   0  0  0  0  0  0  0  0  0  0  0  0
    1.9909   -3.1159    0.1450 H   0  0  0  0  0  0  0  0  0  0  0  0
    2.0215   -2.2840    1.6861 H   0  0  0  0  0  0  0  0  0  0  0  0
   -1.4432    2.4200   -0.3637 H   0  0  0  0  0  0  0  0  0  0  0  0
   -5.3242    0.2270   -1.4948 H   0  0  0  0  0  0  0  0  0  0  0  0
    3.1095   -0.0567    1.9291 H   0  0  0  0  0  0  0  0  0  0  0  0
    3.0376   -2.1524   -1.8589 H   0  0  0  0  0  0  0  0  0  0  0  0
    4.7983   -0.6401   -2.7366 H   0  0  0  0  0  0  0  0  0  0  0  0
   -4.6250    3.9165    0.9126 H   0  0  0  0  0  0  0  0  0  0  0  0
    6.9657    2.0754    0.4026 H   0  0  0  0  0  0  0  0  0  0  0  0
    5.7093    3.1869   -0.1976 H   0  0  0  0  0  0  0  0  0  0  0  0
  1 17  2  0  0  0  0
  2 21  1  0  0  0  0
  2 45  1  0  0  0  0
  3 21  2  0  0  0  0
  4 24  1  0  0  0  0
  4 27  1  0  0  0  0
  5 26  1  0  0  0  0
  5 27  1  0  0  0  0
  6  7  1  0  0  0  0
  6  8  1  0  0  0  0
  6  9  1  0  0  0  0
  6 28  1  0  0  0  0
  7 10  1  0  0  0  0
  7 12  1  0  0  0  0
  7 29  1  0  0  0  0
  8 11  1  0  0  0  0
  8 13  1  0  0  0  0
  8 30  1  0  0  0  0
  9 10  1  0  0  0  0
  9 14  1  0  0  0  0
  9 31  1  0  0  0  0
 10 15  1  0  0  0  0
 10 32  1  0  0  0  0
 11 12  1  0  0  0  0
 11 17  1  0  0  0  0
 11 33  1  0  0  0  0
 12 34  1  0  0  0  0
 12 35  1  0  0  0  0
 13 16  1  0  0  0  0
 13 18  1  0  0  0  0
 13 36  1  0  0  0  0
 14 16  2  0  0  0  0
 14 37  1  0  0  0  0
 15 20  1  0  0  0  0
 15 38  1  0  0  0  0
 15 39  1  0  0  0  0
 16 40  1  0  0  0  0
 17 19  1  0  0  0  0
 18 19  2  0  0  0  0
 18 21  1  0  0  0  0
 19 41  1  0  0  0  0
 20 22  2  0  0  0  0
 20 23  1  0  0  0  0
 22 24  1  0  0  0  0
 22 42  1  0  0  0  0
 23 25  2  0  0  0  0
 23 43  1  0  0  0  0
 24 26  2  0  0  0  0
 25 26  1  0  0  0  0
 25 44  1  0  0  0  0
 27 46  1  0  0  0  0
 27 47  1  0  0  0  0
M  END
> <PUBCHEM_COMPOUND_CID>
71521968

> <PUBCHEM_CONFORMER_RMSD>
0.8

> <PUBCHEM_CONFORMER_DIVERSEORDER>
1
6
7
10
3
8
9
5
4
2

> <PUBCHEM_MMFF94_PARTIAL_CHARGES>
29
1 -0.57
11 0.06
13 0.28
14 -0.27
15 0.14
16 -0.29
17 0.49
18 -0.12
19 -0.14
2 -0.65
20 -0.14
21 0.71
22 -0.15
23 -0.15
24 0.08
25 -0.15
26 0.08
27 0.56
3 -0.57
37 0.15
4 -0.36
40 0.15
41 0.15
42 0.15
43 0.15
44 0.15
45 0.5
5 -0.36
9 0.12

> <PUBCHEM_EFFECTIVE_ROTOR_COUNT>
4

> <PUBCHEM_PHARMACOPHORE_FEATURES>
11
1 1 acceptor
1 2 acceptor
1 3 acceptor
1 4 acceptor
1 5 acceptor
3 2 3 21 anion
5 4 5 24 26 27 rings
6 20 22 23 24 25 26 rings
6 6 8 9 13 14 16 rings
6 8 11 13 17 18 19 rings
7 6 7 8 9 10 11 12 rings

> <PUBCHEM_HEAVY_ATOM_COUNT>
27

> <PUBCHEM_ATOM_DEF_STEREO_COUNT>
7

> <PUBCHEM_ATOM_UDEF_STEREO_COUNT>
0

> <PUBCHEM_BOND_DEF_STEREO_COUNT>
0

> <PUBCHEM_BOND_UDEF_STEREO_COUNT>
0

> <PUBCHEM_ISOTOPIC_ATOM_COUNT>
0

> <PUBCHEM_COMPONENT_COUNT>
1

> <PUBCHEM_CACTVS_TAUTO_COUNT>
59

> <PUBCHEM_CONFORMER_ID>
044356B000000001

> <PUBCHEM_MMFF94_ENERGY>
78.4912

> <PUBCHEM_FEATURE_SELFOVERLAP>
56.753

> <PUBCHEM_SHAPE_FINGERPRINT>
10498660 4 18412549812421774352
10928967 22 12463575049833910268
11796584 16 13110094445660840037
11961588 58 18262507118632453429
12422481 6 16443903847571066436
12633257 1 14707502420520261578
12670546 177 17989210343431687318
12892183 10 11386666125302552814
13224815 77 18341620338804943058
13383661 66 14187004684067198893
13675066 3 12396294859488277874
13690498 29 17917421094961544887
13944108 23 17116633238647593785
14251764 38 18191309475594757436
14420673 8 8573894384341917320
14528608 73 18413106186711777988
14739800 52 18265033886663473616
14790565 3 17909835336561181169
14848178 5 10807636866744679697
14848178 96 18336549309304184320
14950920 106 13045951195874140892
15188451 53 8430308009613386905
15348495 7 11386363755520703806
15463212 79 18186794786340820443
15575132 122 18272370905642755447
16994733 274 16588846999122566871
17780758 139 8070037648678956246
17959699 21 18409449172224976738
1813 80 12967119510861067306
18608769 82 18336550533786835651
19784866 34 18040715827357783515
20511986 3 17968919994575862870
20715895 44 18261950752605934056
20775530 9 15695719368193406199
21403212 168 7853041349931898511
22393880 68 18272932717593464198
22950370 63 10591765411205022210
23227448 37 18409452517761634452
235170 7 17418103117549130022
23559900 14 18057880239155367218
23569914 152 17340137641592990468
255183 451 17409915265534115807
2838139 119 18335419088981858648
3117164 225 8070036579142753655
312425 54 8214152845418385814
341906 21 18114746044535794914
3472631 163 18339641123232587813
34797466 226 17846780727807830525
350125 39 18410573994717416537
46194498 28 17630884009365262312
497634 4 17059788818081912123
508706 21 18335986475399230360
5104073 3 17968099685649728618
5283173 99 18413107268764085088
53917941 68 18333447634404824967
56633871 153 9439135263919970421
57724786 102 16660940915234874766
6034566 193 17969524712722442532
6036956 94 17611755899840355860
633830 44 17895475804437563587
67856867 119 18336818698575629842
6898599 12 18413100655041964117
7237137 82 18341604924377976695
7970288 3 11312058734051728116
9981440 41 18187646933606262154

> <PUBCHEM_SHAPE_MULTIPOLES>
526.3
13.02
3.07
1.38
10.47
0.66
-0.16
8.91
-4.56
-2.71
-0.02
0.24
-0.21
-0.01

> <PUBCHEM_SHAPE_SELFOVERLAP>
1195.297

> <PUBCHEM_SHAPE_VOLUME>
273.9

> <PUBCHEM_COORDINATE_TYPE>
2
5
10

$$$$
