imidazolin-4-one
  -OEChem-12152006303D

 12 12  0     0  0  0  0  0  0999 V2000
    2.0426   -0.0022    0.0460 O   0  0  0  0  0  0  0  0  0  0  0  0
   -1.4019   -0.6836    0.1754 N   0  0  0  0  0  0  0  0  0  0  0  0
   -0.0119    1.1172    0.0243 N   0  0  0  0  0  0  0  0  0  0  0  0
   -1.3847    0.7452   -0.1031 C   0  0  0  0  0  0  0  0  0  0  0  0
   -0.0671   -1.1905   -0.1425 C   0  0  0  0  0  0  0  0  0  0  0  0
    0.8231    0.0140    0.0000 C   0  0  0  0  0  0  0  0  0  0  0  0
   -1.9891    1.3098    0.6110 H   0  0  0  0  0  0  0  0  0  0  0  0
   -1.7069    0.9657   -1.1256 H   0  0  0  0  0  0  0  0  0  0  0  0
   -0.0134   -1.5526   -1.1739 H   0  0  0  0  0  0  0  0  0  0  0  0
    0.2303   -1.9754    0.5565 H   0  0  0  0  0  0  0  0  0  0  0  0
   -2.1169   -1.1596   -0.3710 H   0  0  0  0  0  0  0  0  0  0  0  0
    0.3192    2.0752    0.0783 H   0  0  0  0  0  0  0  0  0  0  0  0
  1  6  2  0  0  0  0
  2  4  1  0  0  0  0
  2  5  1  0  0  0  0
  2 11  1  0  0  0  0
  3  4  1  0  0  0  0
  3  6  1  0  0  0  0
  3 12  1  0  0  0  0
  4  7  1  0  0  0  0
  4  8  1  0  0  0  0
  5  6  1  0  0  0  0
  5  9  1  0  0  0  0
  5 10  1  0  0  0  0
M  END
> <PUBCHEM_COMPOUND_CID>
1502063

> <PUBCHEM_CONFORMER_RMSD>
0.4

> <PUBCHEM_CONFORMER_DIVERSEORDER>
1

> <PUBCHEM_MMFF94_PARTIAL_CHARGES>
8
1 -0.57
11 0.36
12 0.37
2 -0.9
3 -0.73
4 0.57
5 0.33
6 0.57

> <PUBCHEM_EFFECTIVE_ROTOR_COUNT>
0.8

> <PUBCHEM_PHARMACOPHORE_FEATURES>
5
1 1 acceptor
1 2 cation
1 2 donor
1 3 donor
5 2 3 4 5 6 rings

> <PUBCHEM_HEAVY_ATOM_COUNT>
6

> <PUBCHEM_ATOM_DEF_STEREO_COUNT>
0

> <PUBCHEM_ATOM_UDEF_STEREO_COUNT>
0

> <PUBCHEM_BOND_DEF_STEREO_COUNT>
0

> <PUBCHEM_BOND_UDEF_STEREO_COUNT>
0

> <PUBCHEM_ISOTOPIC_ATOM_COUNT>
0

> <PUBCHEM_COMPONENT_COUNT>
1

> <PUBCHEM_CACTVS_TAUTO_COUNT>
2

> <PUBCHEM_CONFORMER_ID>
0016EB6F00000001

> <PUBCHEM_MMFF94_ENERGY>
5.6564

> <PUBCHEM_FEATURE_SELFOVERLAP>
25.427

> <PUBCHEM_SHAPE_FINGERPRINT>
139733 1 9511198338193626322
16714656 1 18410864273627893662
20096714 4 18338798892619131088
21015797 1 9149443623892956813
21040471 1 18266177223378115733
29004967 10 18261119615898031547
5943 1 16336941488162932015

> <PUBCHEM_SHAPE_MULTIPOLES>
107.65
1.92
1.19
0.58
0.48
0.12
0.01
-0.15
-0.04
-0.23
0.02
-0.02
0.01
0.05

> <PUBCHEM_SHAPE_SELFOVERLAP>
211.598

> <PUBCHEM_SHAPE_VOLUME>
66.1

> <PUBCHEM_COORDINATE_TYPE>
2
5
10

$$$$
