JBB25_0018
  -OEChem-07172407072D

 43 44  0     1  0  0  0  0  0999 V2000
    8.0622    1.2500    0.0000 O   0  0  0  0  0  0  0  0  0  0  0  0
    7.1962    5.7500    0.0000 O   0  0  0  0  0  0  0  0  0  0  0  0
    2.8660   -4.7500    0.0000 O   0  0  0  0  0  0  0  0  0  0  0  0
    4.5981    0.2500    0.0000 O   0  0  0  0  0  0  0  0  0  0  0  0
    4.5981   -5.7500    0.0000 O   0  0  0  0  0  0  0  0  0  0  0  0
    6.3301    0.2500    0.0000 N   0  0  0  0  0  0  0  0  0  0  0  0
    7.1962    1.7500    0.0000 C   0  0  3  0  0  0  0  0  0  0  0  0
    6.3301    1.2500    0.0000 C   0  0  0  0  0  0  0  0  0  0  0  0
    7.1962    2.7500    0.0000 C   0  0  0  0  0  0  0  0  0  0  0  0
    6.3301    3.2500    0.0000 C   0  0  0  0  0  0  0  0  0  0  0  0
    8.0622    3.2500    0.0000 C   0  0  0  0  0  0  0  0  0  0  0  0
    6.3301    4.2500    0.0000 C   0  0  0  0  0  0  0  0  0  0  0  0
    8.0622    4.2500    0.0000 C   0  0  0  0  0  0  0  0  0  0  0  0
    7.1962    4.7500    0.0000 C   0  0  0  0  0  0  0  0  0  0  0  0
    5.4641   -0.2500    0.0000 C   0  0  0  0  0  0  0  0  0  0  0  0
    4.5981   -2.7500    0.0000 C   0  0  0  0  0  0  0  0  0  0  0  0
    5.4641   -1.2500    0.0000 C   0  0  0  0  0  0  0  0  0  0  0  0
    4.5981   -1.7500    0.0000 C   0  0  0  0  0  0  0  0  0  0  0  0
    3.7320   -3.2500    0.0000 C   0  0  0  0  0  0  0  0  0  0  0  0
    5.4641   -3.2500    0.0000 C   0  0  0  0  0  0  0  0  0  0  0  0
    3.7320   -4.2500    0.0000 C   0  0  0  0  0  0  0  0  0  0  0  0
    4.5981   -4.7500    0.0000 C   0  0  0  0  0  0  0  0  0  0  0  0
    5.4641   -4.2500    0.0000 C   0  0  0  0  0  0  0  0  0  0  0  0
    2.0000   -4.2500    0.0000 C   0  0  0  0  0  0  0  0  0  0  0  0
    7.7331    2.0600    0.0000 H   0  0  0  0  0  0  0  0  0  0  0  0
    6.1181    1.8326    0.0000 H   0  0  0  0  0  0  0  0  0  0  0  0
    5.7196    1.1423    0.0000 H   0  0  0  0  0  0  0  0  0  0  0  0
    6.8671   -0.0600    0.0000 H   0  0  0  0  0  0  0  0  0  0  0  0
    5.7932    2.9400    0.0000 H   0  0  0  0  0  0  0  0  0  0  0  0
    8.5991    2.9400    0.0000 H   0  0  0  0  0  0  0  0  0  0  0  0
    5.7932    4.5600    0.0000 H   0  0  0  0  0  0  0  0  0  0  0  0
    8.5991    4.5600    0.0000 H   0  0  0  0  0  0  0  0  0  0  0  0
    8.5991    1.5600    0.0000 H   0  0  0  0  0  0  0  0  0  0  0  0
    6.0010   -1.5600    0.0000 H   0  0  0  0  0  0  0  0  0  0  0  0
    4.0611   -1.4400    0.0000 H   0  0  0  0  0  0  0  0  0  0  0  0
    3.1951   -2.9400    0.0000 H   0  0  0  0  0  0  0  0  0  0  0  0
    6.0010   -2.9400    0.0000 H   0  0  0  0  0  0  0  0  0  0  0  0
    6.0010   -4.5600    0.0000 H   0  0  0  0  0  0  0  0  0  0  0  0
    7.7331    6.0600    0.0000 H   0  0  0  0  0  0  0  0  0  0  0  0
    5.1350   -6.0600    0.0000 H   0  0  0  0  0  0  0  0  0  0  0  0
    2.3100   -3.7131    0.0000 H   0  0  0  0  0  0  0  0  0  0  0  0
    1.4631   -3.9400    0.0000 H   0  0  0  0  0  0  0  0  0  0  0  0
    1.6900   -4.7869    0.0000 H   0  0  0  0  0  0  0  0  0  0  0  0
  1  7  1  0  0  0  0
  1 33  1  0  0  0  0
  2 14  1  0  0  0  0
  2 39  1  0  0  0  0
  3 21  1  0  0  0  0
  3 24  1  0  0  0  0
  4 15  2  0  0  0  0
  5 22  1  0  0  0  0
  5 40  1  0  0  0  0
  6  8  1  0  0  0  0
  6 15  1  0  0  0  0
  6 28  1  0  0  0  0
  7  8  1  0  0  0  0
  7  9  1  0  0  0  0
  7 25  1  0  0  0  0
  8 26  1  0  0  0  0
  8 27  1  0  0  0  0
  9 10  2  0  0  0  0
  9 11  1  0  0  0  0
 10 12  1  0  0  0  0
 10 29  1  0  0  0  0
 11 13  2  0  0  0  0
 11 30  1  0  0  0  0
 12 14  2  0  0  0  0
 12 31  1  0  0  0  0
 13 14  1  0  0  0  0
 13 32  1  0  0  0  0
 15 17  1  0  0  0  0
 16 18  1  0  0  0  0
 16 19  2  0  0  0  0
 16 20  1  0  0  0  0
 17 18  2  0  0  0  0
 17 34  1  0  0  0  0
 18 35  1  0  0  0  0
 19 21  1  0  0  0  0
 19 36  1  0  0  0  0
 20 23  2  0  0  0  0
 20 37  1  0  0  0  0
 21 22  2  0  0  0  0
 22 23  1  0  0  0  0
 23 38  1  0  0  0  0
 24 41  1  0  0  0  0
 24 42  1  0  0  0  0
 24 43  1  0  0  0  0
M  END
> <PUBCHEM_COMPOUND_CID>
24096391

> <PUBCHEM_COMPOUND_CANONICALIZED>
1

> <PUBCHEM_CACTVS_COMPLEXITY>
420

> <PUBCHEM_CACTVS_HBOND_ACCEPTOR>
5

> <PUBCHEM_CACTVS_HBOND_DONOR>
4

> <PUBCHEM_CACTVS_ROTATABLE_BOND>
6

> <PUBCHEM_CACTVS_SUBSKEYS>
AAADceB6OAAAAAAAAAAAAAAAAAAAAAAAAAAwYAAAAAAAAAABQAAAHgAQCAAADBThmAYyBoLABgCIAiFSEACCCAAgIAAIiIAOiMgPNiKGsRuEcCMk1hGbuYeQ4LQOIAABAAAAQABAAAIAAACAAAAAAAAAAA==

> <PUBCHEM_IUPAC_OPENEYE_NAME>
(E)-N-[2-hydroxy-2-(4-hydroxyphenyl)ethyl]-3-(4-hydroxy-3-methoxy-phenyl)prop-2-enamide

> <PUBCHEM_IUPAC_CAS_NAME>
(E)-N-[2-hydroxy-2-(4-hydroxyphenyl)ethyl]-3-(4-hydroxy-3-methoxyphenyl)-2-propenamide

> <PUBCHEM_IUPAC_NAME_MARKUP>
(<I>E</I>)-<I>N</I>-[2-hydroxy-2-(4-hydroxyphenyl)ethyl]-3-(4-hydroxy-3-methoxyphenyl)prop-2-enamide

> <PUBCHEM_IUPAC_NAME>
(E)-N-[2-hydroxy-2-(4-hydroxyphenyl)ethyl]-3-(4-hydroxy-3-methoxyphenyl)prop-2-enamide

> <PUBCHEM_IUPAC_SYSTEMATIC_NAME>
(E)-N-[2-(4-hydroxyphenyl)-2-oxidanyl-ethyl]-3-(3-methoxy-4-oxidanyl-phenyl)prop-2-enamide

> <PUBCHEM_IUPAC_TRADITIONAL_NAME>
(E)-N-[2-hydroxy-2-(4-hydroxyphenyl)ethyl]-3-(4-hydroxy-3-methoxy-phenyl)acrylamide

> <PUBCHEM_IUPAC_INCHI>
InChI=1S/C18H19NO5/c1-24-17-10-12(2-8-15(17)21)3-9-18(23)19-11-16(22)13-4-6-14(20)7-5-13/h2-10,16,20-22H,11H2,1H3,(H,19,23)/b9-3+

> <PUBCHEM_IUPAC_INCHIKEY>
VJSCHQMOTSXAKB-YCRREMRBSA-N

> <PUBCHEM_XLOGP3>
1.8

> <PUBCHEM_EXACT_MASS>
329.12632271

> <PUBCHEM_MOLECULAR_FORMULA>
C18H19NO5

> <PUBCHEM_MOLECULAR_WEIGHT>
329.3

> <PUBCHEM_OPENEYE_CAN_SMILES>
COC1=C(C=CC(=C1)C=CC(=O)NCC(C2=CC=C(C=C2)O)O)O

> <PUBCHEM_OPENEYE_ISO_SMILES>
COC1=C(C=CC(=C1)/C=C/C(=O)NCC(C2=CC=C(C=C2)O)O)O

> <PUBCHEM_CACTVS_TPSA>
99

> <PUBCHEM_MONOISOTOPIC_WEIGHT>
329.12632271

> <PUBCHEM_TOTAL_CHARGE>
0

> <PUBCHEM_HEAVY_ATOM_COUNT>
24

> <PUBCHEM_ATOM_DEF_STEREO_COUNT>
0

> <PUBCHEM_ATOM_UDEF_STEREO_COUNT>
1

> <PUBCHEM_BOND_DEF_STEREO_COUNT>
1

> <PUBCHEM_BOND_UDEF_STEREO_COUNT>
0

> <PUBCHEM_ISOTOPIC_ATOM_COUNT>
0

> <PUBCHEM_COMPONENT_COUNT>
1

> <PUBCHEM_CACTVS_TAUTO_COUNT>
18

> <PUBCHEM_COORDINATE_TYPE>
1
5
255

> <PUBCHEM_BONDANNOTATIONS>
7  1  3
10  12  8
11  13  8
12  14  8
13  14  8
16  19  8
16  20  8
19  21  8
20  23  8
21  22  8
22  23  8
9  10  8
9  11  8

$$$$
