MCSJ44_0035
  -OEChem-07192411252D

 68 76  0     1  0  0  0  0  0999 V2000
   19.0354   -7.0278    0.0000 C   0  0  3  0  0  0  0  0  0  0  0  0
   19.0354   -8.0249    0.0000 C   0  0  3  0  0  0  0  0  0  0  0  0
   18.1718   -6.5292    0.0000 C   0  0  0  0  0  0  0  0  0  0  0  0
   18.1718   -8.5235    0.0000 C   0  0  0  0  0  0  0  0  0  0  0  0
   17.3083   -7.0278    0.0000 C   0  0  0  0  0  0  0  0  0  0  0  0
   17.3083   -8.0249    0.0000 C   0  0  3  0  0  0  0  0  0  0  0  0
   19.8989   -6.5293    0.0000 C   0  0  3  0  0  0  0  0  0  0  0  0
   20.7624   -7.0279    0.0000 C   0  0  3  0  0  0  0  0  0  0  0  0
   19.8988   -8.5235    0.0000 C   0  0  0  0  0  0  0  0  0  0  0  0
   20.7624   -8.0249    0.0000 C   0  0  0  0  0  0  0  0  0  0  0  0
   19.8990   -5.5323    0.0000 C   0  0  0  0  0  0  0  0  0  0  0  0
   20.7626   -5.0338    0.0000 C   0  0  0  0  0  0  0  0  0  0  0  0
   21.6259   -6.5295    0.0000 C   0  0  3  0  0  0  0  0  0  0  0  0
   21.6260   -5.5324    0.0000 C   0  0  3  0  0  0  0  0  0  0  0  0
   22.4893   -7.0280    0.0000 C   0  0  0  0  0  0  0  0  0  0  0  0
   23.3528   -6.5295    0.0000 C   0  0  3  0  0  0  0  0  0  0  0  0
   22.4894   -5.0340    0.0000 C   0  0  3  0  0  0  0  0  0  0  0  0
   23.3528   -5.5326    0.0000 C   0  0  3  0  0  0  0  0  0  0  0  0
   22.4895   -4.0371    0.0000 C   0  0  0  0  0  0  0  0  0  0  0  0
   23.3530   -3.5387    0.0000 C   0  0  0  0  0  0  0  0  0  0  0  0
   24.2162   -5.0342    0.0000 C   0  0  0  0  0  0  0  0  0  0  0  0
   24.2163   -4.0372    0.0000 C   0  0  0  0  0  0  0  0  0  0  0  0
   22.8546   -2.6752    0.0000 C   0  0  0  0  0  0  0  0  0  0  0  0
   23.8517   -2.6753    0.0000 C   0  0  0  0  0  0  0  0  0  0  0  0
   18.6704   -9.3870    0.0000 C   0  0  0  0  0  0  0  0  0  0  0  0
   17.6733   -9.3869    0.0000 C   0  0  0  0  0  0  0  0  0  0  0  0
   16.4448   -8.5235    0.0000 O   0  0  0  0  0  0  0  0  0  0  0  0
   19.0354   -6.0307    0.0000 C   0  0  0  0  0  0  0  0  0  0  0  0
   19.8989   -7.5264    0.0000 H   0  0  0  0  0  0  0  0  0  0  0  0
   20.7624   -6.0308    0.0000 C   0  0  0  0  0  0  0  0  0  0  0  0
   21.6259   -7.5266    0.0000 C   0  0  0  0  0  0  0  0  0  0  0  0
   22.4894   -6.0311    0.0000 H   0  0  0  0  0  0  0  0  0  0  0  0
   19.0354   -9.0220    0.0000 H   0  0  0  0  0  0  0  0  0  0  0  0
   24.2162   -7.0281    0.0000 O   0  0  0  0  0  0  0  0  0  0  0  0
   21.9159   -4.5584    0.0000 O   0  0  0  0  0  0  0  0  0  0  0  0
   23.1094   -4.5584    0.0000 C   0  0  0  0  0  0  0  0  0  0  0  0
   15.5813   -8.0249    0.0000 C   0  0  3  0  0  0  0  0  0  0  0  0
   14.7179   -8.5234    0.0000 C   0  0  3  0  0  0  0  0  0  0  0  0
   15.5813   -7.0278    0.0000 O   0  0  0  0  0  0  0  0  0  0  0  0
   13.8544   -8.0247    0.0000 C   0  0  3  0  0  0  0  0  0  0  0  0
   14.7179   -6.5292    0.0000 C   0  0  3  0  0  0  0  0  0  0  0  0
   13.8544   -7.0277    0.0000 C   0  0  3  0  0  0  0  0  0  0  0  0
   14.7178   -9.5205    0.0000 O   0  0  0  0  0  0  0  0  0  0  0  0
   12.9908   -8.5233    0.0000 O   0  0  0  0  0  0  0  0  0  0  0  0
   12.9909   -6.5292    0.0000 O   0  0  0  0  0  0  0  0  0  0  0  0
   14.7179   -5.5321    0.0000 C   0  0  0  0  0  0  0  0  0  0  0  0
   15.5815   -5.0336    0.0000 O   0  0  0  0  0  0  0  0  0  0  0  0
   15.5815   -4.0365    0.0000 C   0  0  3  0  0  0  0  0  0  0  0  0
   14.7180   -3.5379    0.0000 C   0  0  3  0  0  0  0  0  0  0  0  0
   16.4450   -3.5380    0.0000 O   0  0  0  0  0  0  0  0  0  0  0  0
   14.7181   -2.5408    0.0000 C   0  0  3  0  0  0  0  0  0  0  0  0
   16.4450   -2.5410    0.0000 C   0  0  3  0  0  0  0  0  0  0  0  0
   15.5815   -2.0423    0.0000 C   0  0  3  0  0  0  0  0  0  0  0  0
   13.8544   -4.0365    0.0000 O   0  0  0  0  0  0  0  0  0  0  0  0
   13.8546   -2.0422    0.0000 O   0  0  0  0  0  0  0  0  0  0  0  0
   15.5816   -1.0452    0.0000 O   0  0  0  0  0  0  0  0  0  0  0  0
   17.3085   -2.0424    0.0000 C   0  0  0  0  0  0  0  0  0  0  0  0
   17.3086   -1.0453    0.0000 O   0  0  0  0  0  0  0  0  0  0  0  0
   12.1273   -7.0277    0.0000 C   0  0  3  0  0  0  0  0  0  0  0  0
   12.1273   -8.0247    0.0000 O   0  0  0  0  0  0  0  0  0  0  0  0
   11.2638   -6.5291    0.0000 C   0  0  3  0  0  0  0  0  0  0  0  0
   11.2637   -8.5233    0.0000 C   0  0  3  0  0  0  0  0  0  0  0  0
   10.4003   -7.0276    0.0000 C   0  0  3  0  0  0  0  0  0  0  0  0
   10.4003   -8.0247    0.0000 C   0  0  3  0  0  0  0  0  0  0  0  0
   11.2638   -5.5320    0.0000 O   0  0  0  0  0  0  0  0  0  0  0  0
    9.5368   -6.5290    0.0000 O   0  0  0  0  0  0  0  0  0  0  0  0
    9.5367   -8.5232    0.0000 O   0  0  0  0  0  0  0  0  0  0  0  0
   11.2636   -9.5204    0.0000 C   0  0  0  0  0  0  0  0  0  0  0  0
  1  3  1  0  0  0  0
  2  4  1  0  0  0  0
  3  5  1  0  0  0  0
  4  6  1  0  0  0  0
  5  6  1  0  0  0  0
  1  7  1  0  0  0  0
  1  2  1  0  0  0  0
  2  9  1  0  0  0  0
  8 10  1  0  0  0  0
  9 10  1  0  0  0  0
  7 11  1  0  0  0  0
  7  8  1  0  0  0  0
 11 12  2  0  0  0  0
  8 13  1  0  0  0  0
 12 14  1  0  0  0  0
 13 15  1  0  0  0  0
 13 14  1  0  0  0  0
 15 16  1  0  0  0  0
 14 17  1  0  0  0  0
 16 18  1  0  0  0  0
 17 19  1  0  0  0  0
 17 18  1  0  0  0  0
 19 20  1  0  0  0  0
 18 21  1  0  0  0  0
 20 22  1  0  0  0  0
 21 22  1  0  0  0  0
 20 23  1  0  0  0  0
 20 24  1  0  0  0  0
  4 25  1  0  0  0  0
  4 26  1  0  0  0  0
  6 27  1  1  0  0  0
  1 28  1  1  0  0  0
  7 29  1  6  0  0  0
  8 30  1  1  0  0  0
 13 31  1  6  0  0  0
 17 32  1  1  0  0  0
  2 33  1  6  0  0  0
 16 34  1  1  0  0  0
 35 36  1  0  0  0  0
 18 36  1  1  0  0  0
 14 35  1  1  0  0  0
 37 27  1  1  0  0  0
 37 38  1  0  0  0  0
 37 39  1  0  0  0  0
 38 40  1  0  0  0  0
 39 41  1  0  0  0  0
 40 42  1  0  0  0  0
 41 42  1  0  0  0  0
 38 43  1  6  0  0  0
 40 44  1  1  0  0  0
 42 45  1  6  0  0  0
 41 46  1  1  0  0  0
 46 47  1  0  0  0  0
 48 47  1  1  0  0  0
 48 49  1  0  0  0  0
 48 50  1  0  0  0  0
 49 51  1  0  0  0  0
 50 52  1  0  0  0  0
 51 53  1  0  0  0  0
 52 53  1  0  0  0  0
 49 54  1  6  0  0  0
 51 55  1  1  0  0  0
 53 56  1  6  0  0  0
 52 57  1  1  0  0  0
 57 58  1  0  0  0  0
 59 45  1  6  0  0  0
 59 60  1  0  0  0  0
 59 61  1  0  0  0  0
 60 62  1  0  0  0  0
 61 63  1  0  0  0  0
 62 64  1  0  0  0  0
 63 64  1  0  0  0  0
 61 65  1  1  0  0  0
 63 66  1  1  0  0  0
 64 67  1  6  0  0  0
 62 68  1  1  0  0  0
M  END
> <PUBCHEM_COMPOUND_ID_TYPE>
0

> <PUBCHEM_TOTAL_CHARGE>
0

> <PUBCHEM_SUBSTANCE_ID>
85388521

> <PUBCHEM_SUBSTANCE_VERSION>
3

> <PUBCHEM_EXT_DATASOURCE_NAME>
ChEBI

> <PUBCHEM_EXT_DATASOURCE_REGID>
CHEBI:189704

> <PUBCHEM_SUBSTANCE_SYNONYM>
20736-08-7
saikosaponin C
16beta-hydroxy-13,28-epoxyolean-11-en-3beta-yl 6-deoxy-alpha-L-mannopyranosyl-(1->4)-[beta-D-glucopyranosyl-(1->6)]-beta-D-glucopyranoside
(3beta,16beta)-13,28-epoxy-16-hydroxyolean-11-en-3-yl O-6-deoxy-alpha-L-mannopyranosyl-(1->4)-O-[beta-D-glucopyranosyl-(1->6)]-beta-D-glucopyranoside
saikosaponin-C
CHEBI:189704

> <PUBCHEM_GENERIC_REGISTRY_NAME>
20736-08-7

> <PUBCHEM_XREF_EXT_ID>
CHEBI:189704

> <PUBCHEM_EXT_DATASOURCE_URL>
http://www.ebi.ac.uk/chebi/

> <PUBCHEM_EXT_SUBSTANCE_URL>
http://www.ebi.ac.uk/chebi/searchId.do?chebiId=CHEBI:189704

> <PUBCHEM_CID_ASSOCIATIONS>
167927  1

> <PUBCHEM_COORDINATE_TYPE>
1
3

> <PUBCHEM_BONDANNOTATIONS>
1  28  5
13  31  6
14  35  5
16  34  5
17  32  5
18  36  5
2  33  6
37  27  5
38  43  6
40  44  5
41  46  5
42  45  6
59  45  6
48  47  5
49  54  6
51  55  5
52  57  5
53  56  6
6  27  5
61  65  5
62  68  5
63  66  5
64  67  6
7  29  6
8  30  5

$$$$
