Normelicopicine
  -OEChem-01222104403D

 40 42  0     0  0  0  0  0  0999 V2000
    1.3698    2.5860   -0.3157 O   0  0  0  0  0  0  0  0  0  0  0  0
    3.6444    1.1722   -0.1104 O   0  0  0  0  0  0  0  0  0  0  0  0
    3.5955   -1.5571    0.1975 O   0  0  0  0  0  0  0  0  0  0  0  0
    1.2304   -2.8901    0.2694 O   0  0  0  0  0  0  0  0  0  0  0  0
   -1.2958   -2.7718    0.0551 O   0  0  0  0  0  0  0  0  0  0  0  0
   -1.2279    1.2500   -0.4011 N   0  0  0  0  0  0  0  0  0  0  0  0
    0.0051    0.5767   -0.2449 C   0  0  0  0  0  0  0  0  0  0  0  0
    0.0141   -0.8189   -0.0548 C   0  0  0  0  0  0  0  0  0  0  0  0
   -2.4727    0.6292   -0.1501 C   0  0  0  0  0  0  0  0  0  0  0  0
   -2.5263   -0.7651    0.0423 C   0  0  0  0  0  0  0  0  0  0  0  0
   -1.2716   -1.5485    0.0106 C   0  0  0  0  0  0  0  0  0  0  0  0
    1.2541    1.2243   -0.2510 C   0  0  0  0  0  0  0  0  0  0  0  0
    1.2096   -1.5380    0.0861 C   0  0  0  0  0  0  0  0  0  0  0  0
    2.4497    0.5118   -0.1065 C   0  0  0  0  0  0  0  0  0  0  0  0
    2.4277   -0.8681    0.0560 C   0  0  0  0  0  0  0  0  0  0  0  0
   -1.2131    2.6624   -0.7920 C   0  0  0  0  0  0  0  0  0  0  0  0
   -3.6900    1.3292   -0.0620 C   0  0  0  0  0  0  0  0  0  0  0  0
   -3.7370   -1.4330    0.2750 C   0  0  0  0  0  0  0  0  0  0  0  0
   -4.9002    0.6678    0.1746 C   0  0  0  0  0  0  0  0  0  0  0  0
   -4.9242   -0.7121    0.3370 C   0  0  0  0  0  0  0  0  0  0  0  0
    1.3981    3.2877    0.9226 C   0  0  0  0  0  0  0  0  0  0  0  0
    4.4528    1.0506    1.0567 C   0  0  0  0  0  0  0  0  0  0  0  0
    4.2073   -2.0453   -0.9942 C   0  0  0  0  0  0  0  0  0  0  0  0
   -0.4510    2.8857   -1.5455 H   0  0  0  0  0  0  0  0  0  0  0  0
   -1.1300    3.3196    0.0776 H   0  0  0  0  0  0  0  0  0  0  0  0
   -2.1281    2.9471   -1.3244 H   0  0  0  0  0  0  0  0  0  0  0  0
   -3.7367    2.4108   -0.1521 H   0  0  0  0  0  0  0  0  0  0  0  0
   -3.7705   -2.5095    0.4182 H   0  0  0  0  0  0  0  0  0  0  0  0
   -5.8234    1.2371    0.2368 H   0  0  0  0  0  0  0  0  0  0  0  0
   -5.8642   -1.2234    0.5212 H   0  0  0  0  0  0  0  0  0  0  0  0
    0.3372   -3.2346    0.4158 H   0  0  0  0  0  0  0  0  0  0  0  0
    2.4041    3.2521    1.3504 H   0  0  0  0  0  0  0  0  0  0  0  0
    0.6801    2.8770    1.6404 H   0  0  0  0  0  0  0  0  0  0  0  0
    1.1441    4.3341    0.7314 H   0  0  0  0  0  0  0  0  0  0  0  0
    5.2187    0.2851    0.9048 H   0  0  0  0  0  0  0  0  0  0  0  0
    3.8621    0.8275    1.9523 H   0  0  0  0  0  0  0  0  0  0  0  0
    4.9603    2.0069    1.2150 H   0  0  0  0  0  0  0  0  0  0  0  0
    4.4611   -1.2177   -1.6641 H   0  0  0  0  0  0  0  0  0  0  0  0
    3.5466   -2.7525   -1.5054 H   0  0  0  0  0  0  0  0  0  0  0  0
    5.1286   -2.5653   -0.7176 H   0  0  0  0  0  0  0  0  0  0  0  0
  1 12  1  0  0  0  0
  1 21  1  0  0  0  0
  2 14  1  0  0  0  0
  2 22  1  0  0  0  0
  3 15  1  0  0  0  0
  3 23  1  0  0  0  0
  4 13  1  0  0  0  0
  4 31  1  0  0  0  0
  5 11  2  0  0  0  0
  6  7  1  0  0  0  0
  6  9  1  0  0  0  0
  6 16  1  0  0  0  0
  7  8  2  0  0  0  0
  7 12  1  0  0  0  0
  8 11  1  0  0  0  0
  8 13  1  0  0  0  0
  9 10  1  0  0  0  0
  9 17  2  0  0  0  0
 10 11  1  0  0  0  0
 10 18  2  0  0  0  0
 12 14  2  0  0  0  0
 13 15  2  0  0  0  0
 14 15  1  0  0  0  0
 16 24  1  0  0  0  0
 16 25  1  0  0  0  0
 16 26  1  0  0  0  0
 17 19  1  0  0  0  0
 17 27  1  0  0  0  0
 18 20  1  0  0  0  0
 18 28  1  0  0  0  0
 19 20  2  0  0  0  0
 19 29  1  0  0  0  0
 20 30  1  0  0  0  0
 21 32  1  0  0  0  0
 21 33  1  0  0  0  0
 21 34  1  0  0  0  0
 22 35  1  0  0  0  0
 22 36  1  0  0  0  0
 22 37  1  0  0  0  0
 23 38  1  0  0  0  0
 23 39  1  0  0  0  0
 23 40  1  0  0  0  0
M  END
> <PUBCHEM_COMPOUND_CID>
5378563

> <PUBCHEM_CONFORMER_RMSD>
0.6

> <PUBCHEM_CONFORMER_DIVERSEORDER>
2
6
5
1
3
4

> <PUBCHEM_MMFF94_PARTIAL_CHARGES>
28
1 -0.36
10 0.09
11 0.4
12 0.08
13 0.08
14 0.08
15 0.08
16 0.37
17 -0.15
18 -0.15
19 -0.15
2 -0.36
20 -0.15
21 0.28
22 0.28
23 0.28
27 0.15
28 0.15
29 0.15
3 -0.36
30 0.15
31 0.45
4 -0.53
5 -0.57
6 -0.57
7 0.1
8 0.09
9 0.1

> <PUBCHEM_EFFECTIVE_ROTOR_COUNT>
3

> <PUBCHEM_PHARMACOPHORE_FEATURES>
9
1 1 acceptor
1 2 acceptor
1 3 acceptor
1 4 donor
1 5 acceptor
1 6 cation
6 6 7 8 9 10 11 rings
6 7 8 12 13 14 15 rings
6 9 10 17 18 19 20 rings

> <PUBCHEM_HEAVY_ATOM_COUNT>
23

> <PUBCHEM_ATOM_DEF_STEREO_COUNT>
0

> <PUBCHEM_ATOM_UDEF_STEREO_COUNT>
0

> <PUBCHEM_BOND_DEF_STEREO_COUNT>
0

> <PUBCHEM_BOND_UDEF_STEREO_COUNT>
0

> <PUBCHEM_ISOTOPIC_ATOM_COUNT>
0

> <PUBCHEM_COMPONENT_COUNT>
1

> <PUBCHEM_CACTVS_TAUTO_COUNT>
4

> <PUBCHEM_CONFORMER_ID>
0052120300000002

> <PUBCHEM_MMFF94_ENERGY>
122.811

> <PUBCHEM_FEATURE_SELFOVERLAP>
45.728

> <PUBCHEM_SHAPE_FINGERPRINT>
10616163 171 18193843866886492583
10967382 1 18409449219126524247
11132069 177 18408319990704507681
11471102 20 18409727365799077119
11578080 2 16986581220522240019
11680986 33 18263370355319076675
12011746 2 18336266730578810055
12236239 1 17917991668803260007
12403259 226 18409164390086492477
12553582 1 18336819784780030911
13140716 1 18121213439937836712
13583140 156 14907883943416001287
138480 1 18410294717809601357
14178342 30 17762047044686146113
14790565 3 18119819268153718076
15081414 286 18341621420793927160
15196674 1 18409731751013453223
15442244 35 18411139130028423979
15536298 74 18413109454691429230
1601671 61 18411138082373122800
16945 1 18409440410148613205
17492 89 18268149936618639239
17804303 29 18408891706965670679
1813 80 17168144546142083220
19591789 44 18338237042314780014
20028762 73 18055916743379931119
20510252 161 18341328903324416889
21267235 1 18337121081299993763
21279426 13 18265896865277499341
21421861 104 17896028854343038272
21452121 103 18342731932217732586
221490 88 18335994150310706995
22182313 1 18336532825288235180
23184049 59 18410579491806017807
2334 1 17832424567729490261
23402539 116 18340759446901425239
23559900 14 18412827971572982086
2748010 2 18192986024304136492
335352 9 18337674101088261839
34934 24 18340200886256861118
350125 39 18265337213843182180
5104073 3 18410294692329513555
7364860 26 18341051907993054596
7832392 63 18340485663916021718
9709674 26 18338239378887966599
9981440 41 17547563142455661152

> <PUBCHEM_SHAPE_MULTIPOLES>
439
8.52
3.28
0.79
2.79
0.7
-0.02
-1.13
-0.85
-1.52
-0.08
-0.37
0.18
0.94

> <PUBCHEM_SHAPE_SELFOVERLAP>
967.369

> <PUBCHEM_SHAPE_VOLUME>
236.4

> <PUBCHEM_COORDINATE_TYPE>
2
5
10

$$$$
