SA6_0013
  -OEChem-07172407062D

 64 67  0     1  0  0  0  0  0999 V2000
   10.8722    1.1660    0.0000 Cl  0  0  0  0  0  0  0  0  0  0  0  0
    5.0182   -0.1371    0.0000 F   0  0  0  0  0  0  0  0  0  0  0  0
    8.0319    1.3532    0.0000 O   0  0  0  0  0  0  0  0  0  0  0  0
    4.7950    0.5968    0.0000 O   0  0  0  0  0  0  0  0  0  0  0  0
    9.5576    1.9008    0.0000 O   0  0  0  0  0  0  0  0  0  0  0  0
    9.1931    2.6383    0.0000 O   0  0  0  0  0  0  0  0  0  0  0  0
    2.0000   -2.9555    0.0000 O   0  0  0  0  0  0  0  0  0  0  0  0
    7.3931    0.0968    0.0000 C   0  0  1  0  0  0  0  0  0  0  0  0
    7.3931   -0.9032    0.0000 C   0  0  2  0  0  0  0  0  0  0  0  0
    6.5271   -1.4032    0.0000 C   0  0  1  0  0  0  0  0  0  0  0  0
    5.6610   -0.9032    0.0000 C   0  0  1  0  0  0  0  0  0  0  0  0
    8.3393    0.4016    0.0000 C   0  0  1  0  0  0  0  0  0  0  0  0
    8.3393   -1.2079    0.0000 C   0  0  0  0  0  0  0  0  0  0  0  0
    6.5271    0.5968    0.0000 C   0  0  0  0  0  0  0  0  0  0  0  0
    8.9229   -0.4032    0.0000 C   0  0  2  0  0  0  0  0  0  0  0  0
    5.6610    0.0968    0.0000 C   0  0  2  0  0  0  0  0  0  0  0  0
    4.7510   -1.4100    0.0000 C   0  0  1  0  0  0  0  0  0  0  0  0
    6.5431   -2.4447    0.0000 C   0  0  0  0  0  0  0  0  0  0  0  0
    7.3931    1.0968    0.0000 C   0  0  0  0  0  0  0  0  0  0  0  0
    5.6451   -2.9724    0.0000 C   0  0  0  0  0  0  0  0  0  0  0  0
    4.7430   -2.4516    0.0000 C   0  0  0  0  0  0  0  0  0  0  0  0
    9.1493    0.9879    0.0000 C   0  0  0  0  0  0  0  0  0  0  0  0
    9.9229   -0.4032    0.0000 C   0  0  0  0  0  0  0  0  0  0  0  0
    4.4163   -0.4677    0.0000 C   0  0  0  0  0  0  0  0  0  0  0  0
    3.8242   -0.8459    0.0000 C   0  0  0  0  0  0  0  0  0  0  0  0
    3.8076   -3.0014    0.0000 C   0  0  0  0  0  0  0  0  0  0  0  0
   10.0622    0.5796    0.0000 C   0  0  0  0  0  0  0  0  0  0  0  0
    2.8763   -1.3739    0.0000 C   0  0  0  0  0  0  0  0  0  0  0  0
    8.2415    2.3309    0.0000 C   0  0  0  0  0  0  0  0  0  0  0  0
    2.8680   -2.4588    0.0000 C   0  0  0  0  0  0  0  0  0  0  0  0
    7.4996    3.0014    0.0000 C   0  0  0  0  0  0  0  0  0  0  0  0
    6.5480    2.6940    0.0000 C   0  0  0  0  0  0  0  0  0  0  0  0
    7.4830   -1.7484    0.0000 H   0  0  0  0  0  0  0  0  0  0  0  0
    7.2664   -1.8225    0.0000 H   0  0  0  0  0  0  0  0  0  0  0  0
    8.0883   -1.7748    0.0000 H   0  0  0  0  0  0  0  0  0  0  0  0
    8.8767   -1.5171    0.0000 H   0  0  0  0  0  0  0  0  0  0  0  0
    6.9256    1.0718    0.0000 H   0  0  0  0  0  0  0  0  0  0  0  0
    6.1285    1.0718    0.0000 H   0  0  0  0  0  0  0  0  0  0  0  0
    9.2046   -0.9555    0.0000 H   0  0  0  0  0  0  0  0  0  0  0  0
    5.6610    0.7168    0.0000 H   0  0  0  0  0  0  0  0  0  0  0  0
    6.7612   -3.0251    0.0000 H   0  0  0  0  0  0  0  0  0  0  0  0
    7.1523   -2.3292    0.0000 H   0  0  0  0  0  0  0  0  0  0  0  0
    8.0131    1.0968    0.0000 H   0  0  0  0  0  0  0  0  0  0  0  0
    7.3931    1.7168    0.0000 H   0  0  0  0  0  0  0  0  0  0  0  0
    6.7731    1.0968    0.0000 H   0  0  0  0  0  0  0  0  0  0  0  0
    5.2478   -3.4484    0.0000 H   0  0  0  0  0  0  0  0  0  0  0  0
    6.0460   -3.4453    0.0000 H   0  0  0  0  0  0  0  0  0  0  0  0
    9.9229   -1.0232    0.0000 H   0  0  0  0  0  0  0  0  0  0  0  0
   10.5429   -0.4032    0.0000 H   0  0  0  0  0  0  0  0  0  0  0  0
    9.9229    0.2168    0.0000 H   0  0  0  0  0  0  0  0  0  0  0  0
    5.0005   -0.2602    0.0000 H   0  0  0  0  0  0  0  0  0  0  0  0
    4.2087    0.1165    0.0000 H   0  0  0  0  0  0  0  0  0  0  0  0
    3.8320   -0.6753    0.0000 H   0  0  0  0  0  0  0  0  0  0  0  0
    3.8361   -0.2261    0.0000 H   0  0  0  0  0  0  0  0  0  0  0  0
    4.7950    1.2168    0.0000 H   0  0  0  0  0  0  0  0  0  0  0  0
    3.8100   -3.6213    0.0000 H   0  0  0  0  0  0  0  0  0  0  0  0
    9.7146    0.0662    0.0000 H   0  0  0  0  0  0  0  0  0  0  0  0
   10.5074    0.1482    0.0000 H   0  0  0  0  0  0  0  0  0  0  0  0
    2.3430   -1.0577    0.0000 H   0  0  0  0  0  0  0  0  0  0  0  0
    7.9888    3.3822    0.0000 H   0  0  0  0  0  0  0  0  0  0  0  0
    7.2094    3.5493    0.0000 H   0  0  0  0  0  0  0  0  0  0  0  0
    6.3574    3.2840    0.0000 H   0  0  0  0  0  0  0  0  0  0  0  0
    5.9580    2.5034    0.0000 H   0  0  0  0  0  0  0  0  0  0  0  0
    6.7385    2.1040    0.0000 H   0  0  0  0  0  0  0  0  0  0  0  0
  1 27  1  0  0  0  0
 11  2  1  6  0  0  0
 12  3  1  6  0  0  0
  3 29  1  0  0  0  0
 16  4  1  1  0  0  0
  4 55  1  0  0  0  0
  5 22  2  0  0  0  0
  6 29  2  0  0  0  0
  7 30  2  0  0  0  0
  8  9  1  0  0  0  0
  8 12  1  0  0  0  0
  8 14  1  0  0  0  0
  8 19  1  1  0  0  0
  9 10  1  0  0  0  0
  9 13  1  0  0  0  0
  9 33  1  6  0  0  0
 10 11  1  0  0  0  0
 10 18  1  0  0  0  0
 10 34  1  1  0  0  0
 11 16  1  0  0  0  0
 11 17  1  0  0  0  0
 12 15  1  0  0  0  0
 12 22  1  0  0  0  0
 13 15  1  0  0  0  0
 13 35  1  0  0  0  0
 13 36  1  0  0  0  0
 14 16  1  0  0  0  0
 14 37  1  0  0  0  0
 14 38  1  0  0  0  0
 15 23  1  1  0  0  0
 15 39  1  0  0  0  0
 16 40  1  0  0  0  0
 17 21  1  0  0  0  0
 17 24  1  1  0  0  0
 17 25  1  0  0  0  0
 18 20  1  0  0  0  0
 18 41  1  0  0  0  0
 18 42  1  0  0  0  0
 19 43  1  0  0  0  0
 19 44  1  0  0  0  0
 19 45  1  0  0  0  0
 20 21  1  0  0  0  0
 20 46  1  0  0  0  0
 20 47  1  0  0  0  0
 21 26  2  0  0  0  0
 22 27  1  0  0  0  0
 23 48  1  0  0  0  0
 23 49  1  0  0  0  0
 23 50  1  0  0  0  0
 24 51  1  0  0  0  0
 24 52  1  0  0  0  0
 24 53  1  0  0  0  0
 25 28  2  0  0  0  0
 25 54  1  0  0  0  0
 26 30  1  0  0  0  0
 26 56  1  0  0  0  0
 27 57  1  0  0  0  0
 27 58  1  0  0  0  0
 28 30  1  0  0  0  0
 28 59  1  0  0  0  0
 29 31  1  0  0  0  0
 31 32  1  0  0  0  0
 31 60  1  0  0  0  0
 31 61  1  0  0  0  0
 32 62  1  0  0  0  0
 32 63  1  0  0  0  0
 32 64  1  0  0  0  0
M  END
> <PUBCHEM_COMPOUND_CID>
32798

> <PUBCHEM_COMPOUND_CANONICALIZED>
1

> <PUBCHEM_CACTVS_COMPLEXITY>
929

> <PUBCHEM_CACTVS_HBOND_ACCEPTOR>
6

> <PUBCHEM_CACTVS_HBOND_DONOR>
1

> <PUBCHEM_CACTVS_ROTATABLE_BOND>
5

> <PUBCHEM_CACTVS_SUBSKEYS>
AAADcfB4OQAEAAAAAAAAAAAAAAAAAYAAAAAwYIAAAAAAAGDAAAAAGwIACAAAD1eggEICCAAABgCIAqDSCAIAAAAgAAAICAFAAkhAEBIBAQQCQAAEgAAIAYPIzPDPgAAAAAAAAADAAAYAADAAAYAADAAAAA==

> <PUBCHEM_IUPAC_OPENEYE_NAME>
[(8S,9R,10S,11S,13S,14S,16S,17R)-17-(2-chloroacetyl)-9-fluoro-11-hydroxy-10,13,16-trimethyl-3-oxo-6,7,8,11,12,14,15,16-octahydrocyclopenta[a]phenanthren-17-yl] propanoate

> <PUBCHEM_IUPAC_CAS_NAME>
propanoic acid [(8S,9R,10S,11S,13S,14S,16S,17R)-17-(2-chloro-1-oxoethyl)-9-fluoro-11-hydroxy-10,13,16-trimethyl-3-oxo-6,7,8,11,12,14,15,16-octahydrocyclopenta[a]phenanthren-17-yl] ester

> <PUBCHEM_IUPAC_NAME_MARKUP>
[(8<I>S</I>,9<I>R</I>,10<I>S</I>,11<I>S</I>,13<I>S</I>,14<I>S</I>,16<I>S</I>,17<I>R</I>)-17-(2-chloroacetyl)-9-fluoro-11-hydroxy-10,13,16-trimethyl-3-oxo-6,7,8,11,12,14,15,16-octahydrocyclopenta[a]phenanthren-17-yl] propanoate

> <PUBCHEM_IUPAC_NAME>
[(8S,9R,10S,11S,13S,14S,16S,17R)-17-(2-chloroacetyl)-9-fluoro-11-hydroxy-10,13,16-trimethyl-3-oxo-6,7,8,11,12,14,15,16-octahydrocyclopenta[a]phenanthren-17-yl] propanoate

> <PUBCHEM_IUPAC_SYSTEMATIC_NAME>
[(8S,9R,10S,11S,13S,14S,16S,17R)-17-(2-chloranylethanoyl)-9-fluoranyl-10,13,16-trimethyl-11-oxidanyl-3-oxidanylidene-6,7,8,11,12,14,15,16-octahydrocyclopenta[a]phenanthren-17-yl] propanoate

> <PUBCHEM_IUPAC_TRADITIONAL_NAME>
propionic acid [(8S,9R,10S,11S,13S,14S,16S,17R)-17-(2-chloroacetyl)-9-fluoro-11-hydroxy-3-keto-10,13,16-trimethyl-6,7,8,11,12,14,15,16-octahydrocyclopenta[a]phenanthren-17-yl] ester

> <PUBCHEM_IUPAC_INCHI>
InChI=1S/C25H32ClFO5/c1-5-21(31)32-25(20(30)13-26)14(2)10-18-17-7-6-15-11-16(28)8-9-22(15,3)24(17,27)19(29)12-23(18,25)4/h8-9,11,14,17-19,29H,5-7,10,12-13H2,1-4H3/t14-,17-,18-,19-,22-,23-,24-,25-/m0/s1

> <PUBCHEM_IUPAC_INCHIKEY>
CBGUOGMQLZIXBE-XGQKBEPLSA-N

> <PUBCHEM_XLOGP3>
3.8

> <PUBCHEM_EXACT_MASS>
466.1922300

> <PUBCHEM_MOLECULAR_FORMULA>
C25H32ClFO5

> <PUBCHEM_MOLECULAR_WEIGHT>
467.0

> <PUBCHEM_OPENEYE_CAN_SMILES>
CCC(=O)OC1(C(CC2C1(CC(C3(C2CCC4=CC(=O)C=CC43C)F)O)C)C)C(=O)CCl

> <PUBCHEM_OPENEYE_ISO_SMILES>
CCC(=O)O[C@@]1([C@H](C[C@@H]2[C@@]1(C[C@@H]([C@]3([C@H]2CCC4=CC(=O)C=C[C@@]43C)F)O)C)C)C(=O)CCl

> <PUBCHEM_CACTVS_TPSA>
80.7

> <PUBCHEM_MONOISOTOPIC_WEIGHT>
466.1922300

> <PUBCHEM_TOTAL_CHARGE>
0

> <PUBCHEM_HEAVY_ATOM_COUNT>
32

> <PUBCHEM_ATOM_DEF_STEREO_COUNT>
8

> <PUBCHEM_ATOM_UDEF_STEREO_COUNT>
0

> <PUBCHEM_BOND_DEF_STEREO_COUNT>
0

> <PUBCHEM_BOND_UDEF_STEREO_COUNT>
0

> <PUBCHEM_ISOTOPIC_ATOM_COUNT>
0

> <PUBCHEM_COMPONENT_COUNT>
1

> <PUBCHEM_CACTVS_TAUTO_COUNT>
6

> <PUBCHEM_COORDINATE_TYPE>
1
5
255

> <PUBCHEM_BONDANNOTATIONS>
10  34  5
15  23  5
17  24  5
11  2  6
12  3  6
16  4  5
8  19  5
9  33  6

$$$$
