Tumerone
  -OEChem-12152007133D

 38 38  0     1  0  0  0  0  0999 V2000
   -1.6471    0.7030   -1.5641 O   0  0  0  0  0  0  0  0  0  0  0  0
    0.3997    2.1775   -0.1889 C   0  0  1  0  0  0  0  0  0  0  0  0
    1.2066    0.9165   -0.1139 C   0  0  0  0  0  0  0  0  0  0  0  0
    1.4355    0.3418    1.2623 C   0  0  0  0  0  0  0  0  0  0  0  0
    2.5233   -0.7458    1.3443 C   0  0  0  0  0  0  0  0  0  0  0  0
   -0.9956    1.9372    0.4044 C   0  0  0  0  0  0  0  0  0  0  0  0
    2.8377   -1.4370    0.0403 C   0  0  0  0  0  0  0  0  0  0  0  0
    1.6877    0.3076   -1.2100 C   0  0  0  0  0  0  0  0  0  0  0  0
    1.1316    3.3120    0.5312 C   0  0  0  0  0  0  0  0  0  0  0  0
    2.4294   -0.9263   -1.1328 C   0  0  0  0  0  0  0  0  0  0  0  0
   -1.7895    0.8897   -0.3591 C   0  0  0  0  0  0  0  0  0  0  0  0
    3.6436   -2.6980    0.1264 C   0  0  0  0  0  0  0  0  0  0  0  0
   -2.8090    0.1448    0.4339 C   0  0  0  0  0  0  0  0  0  0  0  0
   -3.1849   -1.1260    0.2065 C   0  0  0  0  0  0  0  0  0  0  0  0
   -4.2542   -1.7558    1.0605 C   0  0  0  0  0  0  0  0  0  0  0  0
   -2.6147   -2.0409   -0.8411 C   0  0  0  0  0  0  0  0  0  0  0  0
    0.2853    2.4802   -1.2387 H   0  0  0  0  0  0  0  0  0  0  0  0
    1.6979    1.1193    1.9865 H   0  0  0  0  0  0  0  0  0  0  0  0
    0.4954   -0.1040    1.6117 H   0  0  0  0  0  0  0  0  0  0  0  0
    2.2147   -1.4866    2.0925 H   0  0  0  0  0  0  0  0  0  0  0  0
    3.4511   -0.2936    1.7187 H   0  0  0  0  0  0  0  0  0  0  0  0
   -0.9386    1.6614    1.4638 H   0  0  0  0  0  0  0  0  0  0  0  0
   -1.5754    2.8677    0.3529 H   0  0  0  0  0  0  0  0  0  0  0  0
    1.5144    0.7131   -2.2017 H   0  0  0  0  0  0  0  0  0  0  0  0
    0.6349    4.2664    0.3218 H   0  0  0  0  0  0  0  0  0  0  0  0
    1.1337    3.1897    1.6191 H   0  0  0  0  0  0  0  0  0  0  0  0
    2.1693    3.4000    0.1907 H   0  0  0  0  0  0  0  0  0  0  0  0
    2.6644   -1.4169   -2.0719 H   0  0  0  0  0  0  0  0  0  0  0  0
    4.6049   -2.5014    0.6118 H   0  0  0  0  0  0  0  0  0  0  0  0
    3.8490   -3.1237   -0.8614 H   0  0  0  0  0  0  0  0  0  0  0  0
    3.1067   -3.4527    0.7100 H   0  0  0  0  0  0  0  0  0  0  0  0
   -3.2463    0.7038    1.2570 H   0  0  0  0  0  0  0  0  0  0  0  0
   -3.8503   -2.6178    1.6015 H   0  0  0  0  0  0  0  0  0  0  0  0
   -5.0858   -2.0957    0.4345 H   0  0  0  0  0  0  0  0  0  0  0  0
   -4.6609   -1.0594    1.8017 H   0  0  0  0  0  0  0  0  0  0  0  0
   -1.6647   -1.6911   -1.2514 H   0  0  0  0  0  0  0  0  0  0  0  0
   -3.3264   -2.1630   -1.6637 H   0  0  0  0  0  0  0  0  0  0  0  0
   -2.4156   -3.0289   -0.4110 H   0  0  0  0  0  0  0  0  0  0  0  0
  1 11  2  0  0  0  0
  2  3  1  0  0  0  0
  2  6  1  0  0  0  0
  2  9  1  0  0  0  0
  2 17  1  0  0  0  0
  3  4  1  0  0  0  0
  3  8  2  0  0  0  0
  4  5  1  0  0  0  0
  4 18  1  0  0  0  0
  4 19  1  0  0  0  0
  5  7  1  0  0  0  0
  5 20  1  0  0  0  0
  5 21  1  0  0  0  0
  6 11  1  0  0  0  0
  6 22  1  0  0  0  0
  6 23  1  0  0  0  0
  7 10  2  0  0  0  0
  7 12  1  0  0  0  0
  8 10  1  0  0  0  0
  8 24  1  0  0  0  0
  9 25  1  0  0  0  0
  9 26  1  0  0  0  0
  9 27  1  0  0  0  0
 10 28  1  0  0  0  0
 11 13  1  0  0  0  0
 12 29  1  0  0  0  0
 12 30  1  0  0  0  0
 12 31  1  0  0  0  0
 13 14  2  0  0  0  0
 13 32  1  0  0  0  0
 14 15  1  0  0  0  0
 14 16  1  0  0  0  0
 15 33  1  0  0  0  0
 15 34  1  0  0  0  0
 15 35  1  0  0  0  0
 16 36  1  0  0  0  0
 16 37  1  0  0  0  0
 16 38  1  0  0  0  0
M  END
> <PUBCHEM_COMPOUND_CID>
558173

> <PUBCHEM_CONFORMER_RMSD>
0.6

> <PUBCHEM_CONFORMER_DIVERSEORDER>
5
84
49
85
17
22
66
77
25
78
69
96
94
6
79
101
3
43
88
76
83
59
50
74
41
71
31
53
98
75
16
87
65
8
48
82
54
60
44
38
99
81
51
90
12
1
10
46
2
26
64
67
72
97
13
40
4
45
11
42
35
18
24
93
103
57
47
37
7
34
56
28
39
95
91
86
15
32
21
100
58
70
27
80
55
102
29
36
23
62
89
30
9
68
61
92
73
63
14
20
33
52
19

> <PUBCHEM_MMFF94_PARTIAL_CHARGES>
18
1 -0.57
10 -0.15
11 0.49
12 0.14
13 -0.14
14 -0.28
15 0.14
16 0.14
2 0.14
24 0.15
28 0.15
3 -0.28
32 0.15
4 0.14
5 0.14
6 0.06
7 -0.28
8 -0.15

> <PUBCHEM_EFFECTIVE_ROTOR_COUNT>
4.4

> <PUBCHEM_PHARMACOPHORE_FEATURES>
4
1 1 acceptor
1 9 hydrophobe
3 14 15 16 hydrophobe
6 3 4 5 7 8 10 rings

> <PUBCHEM_HEAVY_ATOM_COUNT>
16

> <PUBCHEM_ATOM_DEF_STEREO_COUNT>
0

> <PUBCHEM_ATOM_UDEF_STEREO_COUNT>
1

> <PUBCHEM_BOND_DEF_STEREO_COUNT>
0

> <PUBCHEM_BOND_UDEF_STEREO_COUNT>
0

> <PUBCHEM_ISOTOPIC_ATOM_COUNT>
0

> <PUBCHEM_COMPONENT_COUNT>
1

> <PUBCHEM_CACTVS_TAUTO_COUNT>
5

> <PUBCHEM_CONFORMER_ID>
0008845D00000005

> <PUBCHEM_MMFF94_ENERGY>
24.7897

> <PUBCHEM_FEATURE_SELFOVERLAP>
20.297

> <PUBCHEM_SHAPE_FINGERPRINT>
10618630 7 18410575054614352963
11067466 332 18043815513613126076
11140007 195 16772140001865852935
11471102 22 16485830416846128762
11578080 2 17822838832191240756
12553582 1 18341899610036169679
12633257 1 16558741300184167266
14115302 16 18043530508252503997
14251705 54 18409168805065310171
14251731 5 18409454660961481723
14787075 74 18187926235708717808
14863182 85 17540828621177203895
15375462 189 18339653346361209463
15422964 175 18271531875054487935
17357990 137 12319155340139495466
1798214 55 9583518724359484027
18981168 100 10303258022325840309
19766037 51 18114474430398061043
20291156 8 18335706009354933291
20442098 301 18129947922091968399
20645477 70 18192981845907729335
20871998 22 18410855477403282049
21452121 199 18408316671037672792
21634736 98 18261123924304390142
21650355 55 18124589782775915408
21665056 4 17184752390175154710
21713013 43 16805327725421883035
21731516 1 18409174307065609201
2255824 54 17975703001829600005
232386 152 18336265648009589966
23559900 14 18122615056156501818
31174 14 18338235002437176133
458136 41 17904774614712660061
568465 68 17202474507765583038
5902787 121 18408882914919864752
7364860 26 18268712894813192384
81228 2 17768805369111434200

> <PUBCHEM_SHAPE_MULTIPOLES>
323.4
6.37
3.22
1.28
3.61
1.13
0.06
-6.25
-1.07
-1.15
-0.33
-0.15
-0.15
0.27

> <PUBCHEM_SHAPE_SELFOVERLAP>
644.552

> <PUBCHEM_SHAPE_VOLUME>
190.9

> <PUBCHEM_COORDINATE_TYPE>
2
5
10

$$$$
