Delanzomib
  -OEChem-12182004392D

 58 59  0     1  0  0  0  0  0999 V2000
    6.0010   -1.9400    0.0000 O   0  0  0  0  0  0  0  0  0  0  0  0
    6.0010    1.0600    0.0000 O   0  0  0  0  0  0  0  0  0  0  0  0
    2.5369    0.0600    0.0000 O   0  0  0  0  0  0  0  0  0  0  0  0
    3.4030   -1.4400    0.0000 O   0  0  0  0  0  0  0  0  0  0  0  0
    8.5991   -1.4400    0.0000 O   0  0  0  0  0  0  0  0  0  0  0  0
    5.1350   -0.4400    0.0000 N   0  0  0  0  0  0  0  0  0  0  0  0
    7.7331    0.0600    0.0000 N   0  0  0  0  0  0  0  0  0  0  0  0
   10.3312   -0.4400    0.0000 N   0  0  0  0  0  0  0  0  0  0  0  0
    4.2690    1.0600    0.0000 C   0  0  0  0  0  0  0  0  0  0  0  0
    3.4030    1.5600    0.0000 C   0  0  0  0  0  0  0  0  0  0  0  0
    4.2690    0.0600    0.0000 C   0  0  1  0  0  0  0  0  0  0  0  0
    6.8671   -0.4400    0.0000 C   0  0  2  0  0  0  0  0  0  0  0  0
    6.0010    0.0600    0.0000 C   0  0  0  0  0  0  0  0  0  0  0  0
    6.8671   -1.4400    0.0000 C   0  0  1  0  0  0  0  0  0  0  0  0
    3.4030    2.5600    0.0000 C   0  0  0  0  0  0  0  0  0  0  0  0
    2.5369    1.0600    0.0000 C   0  0  0  0  0  0  0  0  0  0  0  0
    7.7331   -1.9400    0.0000 C   0  0  0  0  0  0  0  0  0  0  0  0
    8.5991   -0.4400    0.0000 C   0  0  0  0  0  0  0  0  0  0  0  0
    9.4651    0.0600    0.0000 C   0  0  0  0  0  0  0  0  0  0  0  0
    9.4651    1.0600    0.0000 C   0  0  0  0  0  0  0  0  0  0  0  0
   11.1972    0.0600    0.0000 C   0  0  0  0  0  0  0  0  0  0  0  0
   10.3312    1.5600    0.0000 C   0  0  0  0  0  0  0  0  0  0  0  0
   11.1972    1.0600    0.0000 C   0  0  0  0  0  0  0  0  0  0  0  0
   12.0632   -0.4400    0.0000 C   0  0  0  0  0  0  0  0  0  0  0  0
   12.0632   -1.4400    0.0000 C   0  0  0  0  0  0  0  0  0  0  0  0
   12.9292    0.0600    0.0000 C   0  0  0  0  0  0  0  0  0  0  0  0
   12.9292   -1.9400    0.0000 C   0  0  0  0  0  0  0  0  0  0  0  0
   13.7953   -0.4400    0.0000 C   0  0  0  0  0  0  0  0  0  0  0  0
   13.7953   -1.4400    0.0000 C   0  0  0  0  0  0  0  0  0  0  0  0
    3.4030   -0.4400    0.0000 B   0  0  0  0  0  0  0  0  0  0  0  0
    4.8796    0.9523    0.0000 H   0  0  0  0  0  0  0  0  0  0  0  0
    4.4810    1.6426    0.0000 H   0  0  0  0  0  0  0  0  0  0  0  0
    3.4030    0.9400    0.0000 H   0  0  0  0  0  0  0  0  0  0  0  0
    4.2690   -0.5600    0.0000 H   0  0  0  0  0  0  0  0  0  0  0  0
    7.4040   -0.7500    0.0000 H   0  0  0  0  0  0  0  0  0  0  0  0
    5.1350   -1.0600    0.0000 H   0  0  0  0  0  0  0  0  0  0  0  0
    6.3301   -1.1300    0.0000 H   0  0  0  0  0  0  0  0  0  0  0  0
    4.0230    2.5600    0.0000 H   0  0  0  0  0  0  0  0  0  0  0  0
    3.4030    3.1800    0.0000 H   0  0  0  0  0  0  0  0  0  0  0  0
    2.7830    2.5600    0.0000 H   0  0  0  0  0  0  0  0  0  0  0  0
    2.2269    1.5969    0.0000 H   0  0  0  0  0  0  0  0  0  0  0  0
    2.0000    0.7500    0.0000 H   0  0  0  0  0  0  0  0  0  0  0  0
    2.8469    0.5231    0.0000 H   0  0  0  0  0  0  0  0  0  0  0  0
    7.7331    0.6800    0.0000 H   0  0  0  0  0  0  0  0  0  0  0  0
    7.4231   -2.4769    0.0000 H   0  0  0  0  0  0  0  0  0  0  0  0
    8.2700   -2.2500    0.0000 H   0  0  0  0  0  0  0  0  0  0  0  0
    8.0431   -1.4031    0.0000 H   0  0  0  0  0  0  0  0  0  0  0  0
    6.0010   -2.5600    0.0000 H   0  0  0  0  0  0  0  0  0  0  0  0
    2.0000   -0.2500    0.0000 H   0  0  0  0  0  0  0  0  0  0  0  0
    2.8660   -1.7500    0.0000 H   0  0  0  0  0  0  0  0  0  0  0  0
    8.9282    1.3700    0.0000 H   0  0  0  0  0  0  0  0  0  0  0  0
   10.3312    2.1800    0.0000 H   0  0  0  0  0  0  0  0  0  0  0  0
   11.7341    1.3700    0.0000 H   0  0  0  0  0  0  0  0  0  0  0  0
   11.5263   -1.7500    0.0000 H   0  0  0  0  0  0  0  0  0  0  0  0
   12.9292    0.6800    0.0000 H   0  0  0  0  0  0  0  0  0  0  0  0
   12.9292   -2.5600    0.0000 H   0  0  0  0  0  0  0  0  0  0  0  0
   14.3322   -0.1300    0.0000 H   0  0  0  0  0  0  0  0  0  0  0  0
   14.3322   -1.7500    0.0000 H   0  0  0  0  0  0  0  0  0  0  0  0
 14  1  1  1  0  0  0
  1 48  1  0  0  0  0
  2 13  2  0  0  0  0
  3 30  1  0  0  0  0
  3 49  1  0  0  0  0
  4 30  1  0  0  0  0
  4 50  1  0  0  0  0
  5 18  2  0  0  0  0
 11  6  1  6  0  0  0
  6 13  1  0  0  0  0
  6 36  1  0  0  0  0
 12  7  1  1  0  0  0
  7 18  1  0  0  0  0
  7 44  1  0  0  0  0
  8 19  1  0  0  0  0
  8 21  2  0  0  0  0
  9 10  1  0  0  0  0
  9 11  1  0  0  0  0
  9 31  1  0  0  0  0
  9 32  1  0  0  0  0
 10 15  1  0  0  0  0
 10 16  1  0  0  0  0
 10 33  1  0  0  0  0
 11 30  1  0  0  0  0
 11 34  1  0  0  0  0
 12 13  1  0  0  0  0
 12 14  1  0  0  0  0
 12 35  1  0  0  0  0
 14 17  1  0  0  0  0
 14 37  1  0  0  0  0
 15 38  1  0  0  0  0
 15 39  1  0  0  0  0
 15 40  1  0  0  0  0
 16 41  1  0  0  0  0
 16 42  1  0  0  0  0
 16 43  1  0  0  0  0
 17 45  1  0  0  0  0
 17 46  1  0  0  0  0
 17 47  1  0  0  0  0
 18 19  1  0  0  0  0
 19 20  2  0  0  0  0
 20 22  1  0  0  0  0
 20 51  1  0  0  0  0
 21 23  1  0  0  0  0
 21 24  1  0  0  0  0
 22 23  2  0  0  0  0
 22 52  1  0  0  0  0
 23 53  1  0  0  0  0
 24 25  2  0  0  0  0
 24 26  1  0  0  0  0
 25 27  1  0  0  0  0
 25 54  1  0  0  0  0
 26 28  2  0  0  0  0
 26 55  1  0  0  0  0
 27 29  2  0  0  0  0
 27 56  1  0  0  0  0
 28 29  1  0  0  0  0
 28 57  1  0  0  0  0
 29 58  1  0  0  0  0
M  END
> <PUBCHEM_COMPOUND_CID>
24800541

> <PUBCHEM_COMPOUND_CANONICALIZED>
1

> <PUBCHEM_CACTVS_COMPLEXITY>
557

> <PUBCHEM_CACTVS_HBOND_ACCEPTOR>
6

> <PUBCHEM_CACTVS_HBOND_DONOR>
5

> <PUBCHEM_CACTVS_ROTATABLE_BOND>
9

> <PUBCHEM_CACTVS_SUBSKEYS>
AAADceJ7OAAAAAAAAAAAAAAAAAAAAAAAAAA8QAAAAAAAAAABwAAoHgAQCAAADTzhngYygJLIEgCoAyVyVACCgCAnAiAImKG4ZNgKcPbAlbGUYQhitgDYyYcYiMCOAAAAAAAAAAAAAAAAAAAAAAAAAAAAAA==

> <PUBCHEM_IUPAC_OPENEYE_NAME>
[(1R)-1-[[(2S,3R)-3-hydroxy-2-[(6-phenylpyridine-2-carbonyl)amino]butanoyl]amino]-3-methyl-butyl]boronic acid

> <PUBCHEM_IUPAC_CAS_NAME>
[(1R)-1-[[(2S,3R)-3-hydroxy-1-oxo-2-[[oxo-(6-phenyl-2-pyridinyl)methyl]amino]butyl]amino]-3-methylbutyl]boronic acid

> <PUBCHEM_IUPAC_NAME_MARKUP>
[(1<I>R</I>)-1-[[(2<I>S</I>,3<I>R</I>)-3-hydroxy-2-[(6-phenylpyridine-2-carbonyl)amino]butanoyl]amino]-3-methylbutyl]boronic acid

> <PUBCHEM_IUPAC_NAME>
[(1R)-1-[[(2S,3R)-3-hydroxy-2-[(6-phenylpyridine-2-carbonyl)amino]butanoyl]amino]-3-methylbutyl]boronic acid

> <PUBCHEM_IUPAC_SYSTEMATIC_NAME>
[(1R)-3-methyl-1-[[(2S,3R)-3-oxidanyl-2-[(6-phenylpyridin-2-yl)carbonylamino]butanoyl]amino]butyl]boronic acid

> <PUBCHEM_IUPAC_TRADITIONAL_NAME>
[(1R)-1-[[(2S,3R)-3-hydroxy-2-[(6-phenylpicolinoyl)amino]butanoyl]amino]-3-methyl-butyl]boronic acid

> <PUBCHEM_IUPAC_INCHI>
InChI=1S/C21H28BN3O5/c1-13(2)12-18(22(29)30)24-21(28)19(14(3)26)25-20(27)17-11-7-10-16(23-17)15-8-5-4-6-9-15/h4-11,13-14,18-19,26,29-30H,12H2,1-3H3,(H,24,28)(H,25,27)/t14-,18+,19+/m1/s1

> <PUBCHEM_IUPAC_INCHIKEY>
SJFBTAPEPRWNKH-CCKFTAQKSA-N

> <PUBCHEM_EXACT_MASS>
413.212201

> <PUBCHEM_MOLECULAR_FORMULA>
C21H28BN3O5

> <PUBCHEM_MOLECULAR_WEIGHT>
413.3

> <PUBCHEM_OPENEYE_CAN_SMILES>
B(C(CC(C)C)NC(=O)C(C(C)O)NC(=O)C1=CC=CC(=N1)C2=CC=CC=C2)(O)O

> <PUBCHEM_OPENEYE_ISO_SMILES>
B([C@H](CC(C)C)NC(=O)[C@H]([C@@H](C)O)NC(=O)C1=CC=CC(=N1)C2=CC=CC=C2)(O)O

> <PUBCHEM_CACTVS_TPSA>
132

> <PUBCHEM_MONOISOTOPIC_WEIGHT>
413.212201

> <PUBCHEM_TOTAL_CHARGE>
0

> <PUBCHEM_HEAVY_ATOM_COUNT>
30

> <PUBCHEM_ATOM_DEF_STEREO_COUNT>
3

> <PUBCHEM_ATOM_UDEF_STEREO_COUNT>
0

> <PUBCHEM_BOND_DEF_STEREO_COUNT>
0

> <PUBCHEM_BOND_UDEF_STEREO_COUNT>
0

> <PUBCHEM_ISOTOPIC_ATOM_COUNT>
0

> <PUBCHEM_COMPONENT_COUNT>
1

> <PUBCHEM_CACTVS_TAUTO_COUNT>
-1

> <PUBCHEM_COORDINATE_TYPE>
1
5
255

> <PUBCHEM_BONDANNOTATIONS>
14  1  5
19  20  8
20  22  8
21  23  8
22  23  8
24  25  8
24  26  8
25  27  8
26  28  8
27  29  8
28  29  8
11  6  6
12  7  5
8  19  8
8  21  8

$$$$
