GI254023X
  -OEChem-12182004353D

 61 61  0     1  0  0  0  0  0999 V2000
   -0.8673   -0.2118   -2.1833 O   0  0  0  0  0  0  0  0  0  0  0  0
   -4.0923   -0.8292   -0.0406 O   0  0  0  0  0  0  0  0  0  0  0  0
   -0.6476    4.5678   -0.9268 O   0  0  0  0  0  0  0  0  0  0  0  0
   -1.7711    3.8236    2.3901 O   0  0  0  0  0  0  0  0  0  0  0  0
   -1.4024   -0.4605    0.0589 N   0  0  0  0  0  0  0  0  0  0  0  0
   -1.2005    3.8618    0.1469 N   0  0  0  0  0  0  0  0  0  0  0  0
   -3.7150   -2.7075   -1.3431 N   0  0  0  0  0  0  0  0  0  0  0  0
   -1.6435   -2.6260    1.2878 C   0  0  0  0  0  0  0  0  0  0  0  0
   -0.4812    1.6708   -0.7328 C   0  0  1  0  0  0  0  0  0  0  0  0
   -1.8774   -1.8219   -0.0254 C   0  0  1  0  0  0  0  0  0  0  0  0
   -1.6548    2.5326   -0.2027 C   0  0  2  0  0  0  0  0  0  0  0  0
    0.7201    1.6693    0.2415 C   0  0  0  0  0  0  0  0  0  0  0  0
   -0.9318    0.2386   -1.0394 C   0  0  0  0  0  0  0  0  0  0  0  0
    1.9121    0.8578   -0.2890 C   0  0  0  0  0  0  0  0  0  0  0  0
   -2.0985   -4.0929    1.1636 C   0  0  0  0  0  0  0  0  0  0  0  0
   -2.4015   -1.9769    2.4630 C   0  0  0  0  0  0  0  0  0  0  0  0
   -0.1392   -2.6123    1.6380 C   0  0  0  0  0  0  0  0  0  0  0  0
   -3.3435   -1.7166   -0.4464 C   0  0  0  0  0  0  0  0  0  0  0  0
   -2.7929    2.6549   -1.2178 C   0  0  0  0  0  0  0  0  0  0  0  0
    3.0768    0.7906    0.7065 C   0  0  0  0  0  0  0  0  0  0  0  0
    4.2234   -0.0707    0.2392 C   0  0  0  0  0  0  0  0  0  0  0  0
   -1.3018    4.3760    1.4015 C   0  0  0  0  0  0  0  0  0  0  0  0
   -5.0482   -2.7832   -1.8910 C   0  0  0  0  0  0  0  0  0  0  0  0
    4.2465   -1.4302    0.5507 C   0  0  0  0  0  0  0  0  0  0  0  0
    5.2605    0.4920   -0.5050 C   0  0  0  0  0  0  0  0  0  0  0  0
    5.3067   -2.2269    0.1184 C   0  0  0  0  0  0  0  0  0  0  0  0
    6.3206   -0.3049   -0.9373 C   0  0  0  0  0  0  0  0  0  0  0  0
    6.3436   -1.6644   -0.6255 C   0  0  0  0  0  0  0  0  0  0  0  0
   -0.1322    2.0959   -1.6847 H   0  0  0  0  0  0  0  0  0  0  0  0
   -1.3207   -2.3105   -0.8363 H   0  0  0  0  0  0  0  0  0  0  0  0
   -2.0723    2.0684    0.6982 H   0  0  0  0  0  0  0  0  0  0  0  0
    1.0695    2.6913    0.4242 H   0  0  0  0  0  0  0  0  0  0  0  0
    0.4148    1.2653    1.2147 H   0  0  0  0  0  0  0  0  0  0  0  0
   -1.4706    0.0212    0.9484 H   0  0  0  0  0  0  0  0  0  0  0  0
    1.5956   -0.1664   -0.5191 H   0  0  0  0  0  0  0  0  0  0  0  0
    2.2590    1.2963   -1.2331 H   0  0  0  0  0  0  0  0  0  0  0  0
   -1.6060   -4.5849    0.3178 H   0  0  0  0  0  0  0  0  0  0  0  0
   -1.8543   -4.6624    2.0677 H   0  0  0  0  0  0  0  0  0  0  0  0
   -3.1808   -4.1680    1.0160 H   0  0  0  0  0  0  0  0  0  0  0  0
   -2.2297   -2.5397    3.3888 H   0  0  0  0  0  0  0  0  0  0  0  0
   -2.0810   -0.9491    2.6579 H   0  0  0  0  0  0  0  0  0  0  0  0
   -3.4833   -1.9702    2.2948 H   0  0  0  0  0  0  0  0  0  0  0  0
    0.2292   -1.5985    1.8293 H   0  0  0  0  0  0  0  0  0  0  0  0
    0.0630   -3.2049    2.5377 H   0  0  0  0  0  0  0  0  0  0  0  0
    0.4562   -3.0365    0.8216 H   0  0  0  0  0  0  0  0  0  0  0  0
   -3.2461    1.6805   -1.4253 H   0  0  0  0  0  0  0  0  0  0  0  0
   -3.5832    3.3125   -0.8384 H   0  0  0  0  0  0  0  0  0  0  0  0
   -2.4448    3.0714   -2.1695 H   0  0  0  0  0  0  0  0  0  0  0  0
    2.7155    0.4096    1.6708 H   0  0  0  0  0  0  0  0  0  0  0  0
    3.4446    1.8043    0.9120 H   0  0  0  0  0  0  0  0  0  0  0  0
   -3.0487   -3.4274   -1.6061 H   0  0  0  0  0  0  0  0  0  0  0  0
   -0.8981    5.4003    1.4568 H   0  0  0  0  0  0  0  0  0  0  0  0
    0.3014    4.4700   -0.7410 H   0  0  0  0  0  0  0  0  0  0  0  0
   -5.4185   -1.7807   -2.1204 H   0  0  0  0  0  0  0  0  0  0  0  0
   -5.0186   -3.3894   -2.7992 H   0  0  0  0  0  0  0  0  0  0  0  0
   -5.7010   -3.2535   -1.1512 H   0  0  0  0  0  0  0  0  0  0  0  0
    3.4429   -1.8805    1.1274 H   0  0  0  0  0  0  0  0  0  0  0  0
    5.2525    1.5494   -0.7557 H   0  0  0  0  0  0  0  0  0  0  0  0
    5.3243   -3.2856    0.3604 H   0  0  0  0  0  0  0  0  0  0  0  0
    7.1279    0.1328   -1.5172 H   0  0  0  0  0  0  0  0  0  0  0  0
    7.1689   -2.2849   -0.9626 H   0  0  0  0  0  0  0  0  0  0  0  0
  1 13  2  0  0  0  0
  2 18  2  0  0  0  0
  3  6  1  0  0  0  0
  3 53  1  0  0  0  0
  4 22  2  0  0  0  0
  5 10  1  0  0  0  0
  5 13  1  0  0  0  0
  5 34  1  0  0  0  0
  6 11  1  0  0  0  0
  6 22  1  0  0  0  0
  7 18  1  0  0  0  0
  7 23  1  0  0  0  0
  7 51  1  0  0  0  0
  8 10  1  0  0  0  0
  8 15  1  0  0  0  0
  8 16  1  0  0  0  0
  8 17  1  0  0  0  0
  9 11  1  0  0  0  0
  9 12  1  0  0  0  0
  9 13  1  0  0  0  0
  9 29  1  0  0  0  0
 10 18  1  0  0  0  0
 10 30  1  0  0  0  0
 11 19  1  0  0  0  0
 11 31  1  0  0  0  0
 12 14  1  0  0  0  0
 12 32  1  0  0  0  0
 12 33  1  0  0  0  0
 14 20  1  0  0  0  0
 14 35  1  0  0  0  0
 14 36  1  0  0  0  0
 15 37  1  0  0  0  0
 15 38  1  0  0  0  0
 15 39  1  0  0  0  0
 16 40  1  0  0  0  0
 16 41  1  0  0  0  0
 16 42  1  0  0  0  0
 17 43  1  0  0  0  0
 17 44  1  0  0  0  0
 17 45  1  0  0  0  0
 19 46  1  0  0  0  0
 19 47  1  0  0  0  0
 19 48  1  0  0  0  0
 20 21  1  0  0  0  0
 20 49  1  0  0  0  0
 20 50  1  0  0  0  0
 21 24  2  0  0  0  0
 21 25  1  0  0  0  0
 22 52  1  0  0  0  0
 23 54  1  0  0  0  0
 23 55  1  0  0  0  0
 23 56  1  0  0  0  0
 24 26  1  0  0  0  0
 24 57  1  0  0  0  0
 25 27  2  0  0  0  0
 25 58  1  0  0  0  0
 26 28  2  0  0  0  0
 26 59  1  0  0  0  0
 27 28  1  0  0  0  0
 27 60  1  0  0  0  0
 28 61  1  0  0  0  0
M  END
> <PUBCHEM_COMPOUND_CID>
9952396

> <PUBCHEM_CONFORMER_RMSD>
1.2

> <PUBCHEM_CONFORMER_DIVERSEORDER>
1
16
88
71
64
96
50
73
81
36
3
74
80
15
12
86
18
69
84
11
70
43
38
94
83
25
91
40
65
21
35
17
47
87
58
27
90
9
79
23
89
92
48
44
46
93
95
55
82
32
56
45
8
6
42
53
24
31
51
76
29
97
85
10
13
54
5
39
60
49
7
20
66
41
75
34
72
57
68
26
30
61
19
67
37
78
62
4
52
28
59
63
2
22
14
33
77

> <PUBCHEM_MMFF94_PARTIAL_CHARGES>
30
1 -0.57
10 0.36
11 0.3
13 0.57
18 0.57
2 -0.57
20 0.14
21 -0.14
22 0.57
23 0.3
24 -0.15
25 -0.15
26 -0.15
27 -0.15
28 -0.15
3 -0.44
34 0.37
4 -0.57
5 -0.73
51 0.37
52 0.06
53 0.4
57 0.15
58 0.15
59 0.15
6 -0.32
60 0.15
61 0.15
7 -0.73
9 0.06

> <PUBCHEM_EFFECTIVE_ROTOR_COUNT>
13

> <PUBCHEM_PHARMACOPHORE_FEATURES>
8
1 1 acceptor
1 2 acceptor
1 4 acceptor
1 5 donor
1 7 donor
4 8 15 16 17 hydrophobe
4 9 12 14 20 hydrophobe
6 21 24 25 26 27 28 rings

> <PUBCHEM_HEAVY_ATOM_COUNT>
28

> <PUBCHEM_ATOM_DEF_STEREO_COUNT>
3

> <PUBCHEM_ATOM_UDEF_STEREO_COUNT>
0

> <PUBCHEM_BOND_DEF_STEREO_COUNT>
0

> <PUBCHEM_BOND_UDEF_STEREO_COUNT>
0

> <PUBCHEM_ISOTOPIC_ATOM_COUNT>
0

> <PUBCHEM_COMPONENT_COUNT>
1

> <PUBCHEM_CACTVS_TAUTO_COUNT>
4

> <PUBCHEM_CONFORMER_ID>
0097DC8C00000001

> <PUBCHEM_MMFF94_ENERGY>
60.8564

> <PUBCHEM_FEATURE_SELFOVERLAP>
40.596

> <PUBCHEM_SHAPE_FINGERPRINT>
107951 10 18121786019656166358
11991303 11 18191585246665034397
12160290 23 18194147160355174053
12596602 18 16558470906824583818
12760667 363 18409730690098801350
12788726 201 18335129878199394562
13135754 10 17534379727755971442
14251740 79 18337391539432012696
14251757 5 18334017185638642874
14363568 33 17396164768378179458
14866123 147 18338235942813650067
15361156 5 18339939159872126326
15420108 30 18056203471691812833
15927050 60 17978506438721232367
21120745 212 18267326359496620436
23559900 14 17830725814012160863
3027735 51 18337668616220372042
4073 2 18337111165074880882
484985 159 17416979326677392874
5309563 4 18120661481212576706
59755656 520 18266736875213950773
6004065 56 17908687776558907134
613672 6 18192418895690772002

> <PUBCHEM_SHAPE_MULTIPOLES>
537.81
11.29
5.98
1.84
21.07
5.18
0.47
-9.35
-4.27
-7.21
2.07
-2.11
-0.29
-0.71

> <PUBCHEM_SHAPE_SELFOVERLAP>
1077.185

> <PUBCHEM_SHAPE_VOLUME>
315.7

> <PUBCHEM_COORDINATE_TYPE>
2
5
10

$$$$
