LY411575 
  -OEChem-12182004323D

 58 61  0     1  0  0  0  0  0999 V2000
   -3.1661    3.3009    0.9793 F   0  0  0  0  0  0  0  0  0  0  0  0
   -6.2276    2.1505   -2.4460 F   0  0  0  0  0  0  0  0  0  0  0  0
    3.1935   -3.0013   -0.4722 O   0  0  0  0  0  0  0  0  0  0  0  0
   -0.6842   -0.2109   -1.1657 O   0  0  0  0  0  0  0  0  0  0  0  0
   -5.1827   -1.3587    1.9293 O   0  0  0  0  0  0  0  0  0  0  0  0
   -2.7015   -2.2887    1.5967 O   0  0  0  0  0  0  0  0  0  0  0  0
    4.3638   -1.0298   -0.8568 N   0  0  0  0  0  0  0  0  0  0  0  0
    0.8069   -1.8330   -0.4365 N   0  0  0  0  0  0  0  0  0  0  0  0
   -2.7463   -1.9707   -0.7065 N   0  0  0  0  0  0  0  0  0  0  0  0
    1.9454   -0.9628   -0.2745 C   0  0  1  0  0  0  0  0  0  0  0  0
    2.0613   -0.3271    1.0865 C   0  0  0  0  0  0  0  0  0  0  0  0
    3.0007    0.7122    1.2480 C   0  0  0  0  0  0  0  0  0  0  0  0
    3.7866    1.2332    0.1003 C   0  0  0  0  0  0  0  0  0  0  0  0
    3.2115   -1.7681   -0.5371 C   0  0  0  0  0  0  0  0  0  0  0  0
    4.4539    0.4109   -0.8474 C   0  0  0  0  0  0  0  0  0  0  0  0
    1.3258   -0.7852    2.1948 C   0  0  0  0  0  0  0  0  0  0  0  0
   -1.4443   -2.5067   -1.0045 C   0  0  2  0  0  0  0  0  0  0  0  0
    3.1726    1.2561    2.5384 C   0  0  0  0  0  0  0  0  0  0  0  0
   -0.4301   -1.3779   -0.8747 C   0  0  0  0  0  0  0  0  0  0  0  0
    3.9167    2.6377   -0.0299 C   0  0  0  0  0  0  0  0  0  0  0  0
    5.2667    1.0300   -1.8246 C   0  0  0  0  0  0  0  0  0  0  0  0
    5.5402   -1.7785   -1.3059 C   0  0  0  0  0  0  0  0  0  0  0  0
    1.5059   -0.2204    3.4554 C   0  0  0  0  0  0  0  0  0  0  0  0
    2.4320    0.7985    3.6285 C   0  0  0  0  0  0  0  0  0  0  0  0
    4.7032    3.2223   -1.0203 C   0  0  0  0  0  0  0  0  0  0  0  0
    5.3880    2.4161   -1.9122 C   0  0  0  0  0  0  0  0  0  0  0  0
   -1.4028   -3.1173   -2.3967 C   0  0  0  0  0  0  0  0  0  0  0  0
   -3.2729   -1.9046    0.5784 C   0  0  0  0  0  0  0  0  0  0  0  0
   -4.6757   -1.3120    0.6037 C   0  0  2  0  0  0  0  0  0  0  0  0
   -4.6833    0.1221    0.1288 C   0  0  0  0  0  0  0  0  0  0  0  0
   -5.4675    0.4723   -0.9580 C   0  0  0  0  0  0  0  0  0  0  0  0
   -3.9057    1.0592    0.7893 C   0  0  0  0  0  0  0  0  0  0  0  0
   -3.9126    2.3833    0.3509 C   0  0  0  0  0  0  0  0  0  0  0  0
   -5.4744    1.7965   -1.3965 C   0  0  0  0  0  0  0  0  0  0  0  0
   -4.6969    2.7520   -0.7421 C   0  0  0  0  0  0  0  0  0  0  0  0
    1.8399   -0.1871   -1.0428 H   0  0  0  0  0  0  0  0  0  0  0  0
    0.9184   -2.8166   -0.2061 H   0  0  0  0  0  0  0  0  0  0  0  0
    0.6107   -1.5977    2.0968 H   0  0  0  0  0  0  0  0  0  0  0  0
   -1.2196   -3.2825   -0.2627 H   0  0  0  0  0  0  0  0  0  0  0  0
    3.8999    2.0470    2.7133 H   0  0  0  0  0  0  0  0  0  0  0  0
    3.3985    3.3045    0.6582 H   0  0  0  0  0  0  0  0  0  0  0  0
    5.7979    0.4421   -2.5698 H   0  0  0  0  0  0  0  0  0  0  0  0
    5.5298   -1.8366   -2.3987 H   0  0  0  0  0  0  0  0  0  0  0  0
    5.5245   -2.8001   -0.9144 H   0  0  0  0  0  0  0  0  0  0  0  0
    6.4582   -1.2998   -0.9506 H   0  0  0  0  0  0  0  0  0  0  0  0
    0.9310   -0.5845    4.3016 H   0  0  0  0  0  0  0  0  0  0  0  0
    2.5839    1.2363    4.6106 H   0  0  0  0  0  0  0  0  0  0  0  0
   -3.2838   -1.5825   -1.4764 H   0  0  0  0  0  0  0  0  0  0  0  0
    4.7827    4.3031   -1.0859 H   0  0  0  0  0  0  0  0  0  0  0  0
   -1.6168   -2.3671   -3.1666 H   0  0  0  0  0  0  0  0  0  0  0  0
   -0.4144   -3.5374   -2.6110 H   0  0  0  0  0  0  0  0  0  0  0  0
   -2.1450   -3.9166   -2.4949 H   0  0  0  0  0  0  0  0  0  0  0  0
    6.0077    2.8600   -2.6856 H   0  0  0  0  0  0  0  0  0  0  0  0
   -5.3234   -1.9369   -0.0231 H   0  0  0  0  0  0  0  0  0  0  0  0
   -6.0766   -0.2624   -1.4761 H   0  0  0  0  0  0  0  0  0  0  0  0
   -3.2919    0.7869    1.6430 H   0  0  0  0  0  0  0  0  0  0  0  0
   -5.2754   -2.2955    2.1738 H   0  0  0  0  0  0  0  0  0  0  0  0
   -4.7022    3.7828   -1.0835 H   0  0  0  0  0  0  0  0  0  0  0  0
  1 33  1  0  0  0  0
  2 34  1  0  0  0  0
  3 14  2  0  0  0  0
  4 19  2  0  0  0  0
  5 29  1  0  0  0  0
  5 57  1  0  0  0  0
  6 28  2  0  0  0  0
  7 14  1  0  0  0  0
  7 15  1  0  0  0  0
  7 22  1  0  0  0  0
  8 10  1  0  0  0  0
  8 19  1  0  0  0  0
  8 37  1  0  0  0  0
  9 17  1  0  0  0  0
  9 28  1  0  0  0  0
  9 48  1  0  0  0  0
 10 11  1  0  0  0  0
 10 14  1  0  0  0  0
 10 36  1  0  0  0  0
 11 12  1  0  0  0  0
 11 16  2  0  0  0  0
 12 13  1  0  0  0  0
 12 18  2  0  0  0  0
 13 15  1  0  0  0  0
 13 20  2  0  0  0  0
 15 21  2  0  0  0  0
 16 23  1  0  0  0  0
 16 38  1  0  0  0  0
 17 19  1  0  0  0  0
 17 27  1  0  0  0  0
 17 39  1  0  0  0  0
 18 24  1  0  0  0  0
 18 40  1  0  0  0  0
 20 25  1  0  0  0  0
 20 41  1  0  0  0  0
 21 26  1  0  0  0  0
 21 42  1  0  0  0  0
 22 43  1  0  0  0  0
 22 44  1  0  0  0  0
 22 45  1  0  0  0  0
 23 24  2  0  0  0  0
 23 46  1  0  0  0  0
 24 47  1  0  0  0  0
 25 26  2  0  0  0  0
 25 49  1  0  0  0  0
 26 53  1  0  0  0  0
 27 50  1  0  0  0  0
 27 51  1  0  0  0  0
 27 52  1  0  0  0  0
 28 29  1  0  0  0  0
 29 30  1  0  0  0  0
 29 54  1  0  0  0  0
 30 31  2  0  0  0  0
 30 32  1  0  0  0  0
 31 34  1  0  0  0  0
 31 55  1  0  0  0  0
 32 33  2  0  0  0  0
 32 56  1  0  0  0  0
 33 35  1  0  0  0  0
 34 35  2  0  0  0  0
 35 58  1  0  0  0  0
M  END
> <PUBCHEM_COMPOUND_CID>
10435235

> <PUBCHEM_CONFORMER_RMSD>
1

> <PUBCHEM_CONFORMER_DIVERSEORDER>
2
192
96
129
166
85
139
44
174
147
102
142
171
14
1
97
177
130
165
215
200
111
198
93
189
101
194
168
210
164
126
45
170
136
59
7
163
83
167
8
159
105
138
184
58
205
143
64
107
173
74
213
146
28
218
183
65
141
150
77
56
217
21
19
211
95
91
185
37
32
22
31
62
10
197
221
76
23
48
172
18
4
154
108
12
204
67
36
114
179
115
193
53
72
34
11
225
60
195
100
112
6
220
68
155
187
86
92
186
137
15
27
38
181
228
52
203
219
42
9
175
89
206
149
70
135
222
196
131
3
16
118
25
40
51
202
116
110
201
209
176
109
216
13
169
35
104
133
158
20
90
223
17
156
39
161
29
24
50
152
69
43
98
71
212
124
157
132
66
113
125
190
160
80
128
84
94
5
75
46
199
226
41
134
26
61
145
30
148
140
78
87
214
47
121
182
103
49
88
106
119
99
120
63
79
57
188
33
127
81
207
73
224
227
191
153
180
117
55
208
123
122
144
162
178
151
54
82

> <PUBCHEM_MMFF94_PARTIAL_CHARGES>
46
1 -0.19
10 0.5
11 -0.14
14 0.57
15 0.12
16 -0.15
17 0.36
18 -0.15
19 0.57
2 -0.19
20 -0.15
21 -0.15
22 0.3
23 -0.15
24 -0.15
25 -0.15
26 -0.15
28 0.57
29 0.48
3 -0.57
30 -0.14
31 -0.15
32 -0.15
33 0.19
34 0.19
35 -0.15
37 0.37
38 0.15
4 -0.57
40 0.15
41 0.15
42 0.15
46 0.15
47 0.15
48 0.37
49 0.15
5 -0.68
53 0.15
55 0.15
56 0.15
57 0.4
58 0.15
6 -0.57
7 -0.48
8 -0.73
9 -0.73

> <PUBCHEM_EFFECTIVE_ROTOR_COUNT>
7.4

> <PUBCHEM_PHARMACOPHORE_FEATURES>
11
1 3 acceptor
1 4 acceptor
1 5 acceptor
1 5 donor
1 6 acceptor
1 8 donor
1 9 donor
6 11 12 16 18 23 24 rings
6 13 15 20 21 25 26 rings
6 30 31 32 33 34 35 rings
7 7 10 11 12 13 14 15 rings

> <PUBCHEM_HEAVY_ATOM_COUNT>
35

> <PUBCHEM_ATOM_DEF_STEREO_COUNT>
3

> <PUBCHEM_ATOM_UDEF_STEREO_COUNT>
0

> <PUBCHEM_BOND_DEF_STEREO_COUNT>
0

> <PUBCHEM_BOND_UDEF_STEREO_COUNT>
0

> <PUBCHEM_ISOTOPIC_ATOM_COUNT>
0

> <PUBCHEM_COMPONENT_COUNT>
1

> <PUBCHEM_CACTVS_TAUTO_COUNT>
4

> <PUBCHEM_CONFORMER_ID>
009F3AA300000002

> <PUBCHEM_MMFF94_ENERGY>
109.8567

> <PUBCHEM_FEATURE_SELFOVERLAP>
55.851

> <PUBCHEM_SHAPE_FINGERPRINT>
10556698 54 17631717276145310137
10670039 82 18341051938036856900
10928967 22 16917064439111064877
10974685 15 17626932425037504018
11070050 100 16153425060936440504
12596602 18 17531247305164900691
12633046 712 17275111673148798598
13617811 41 17407944948405925671
13726171 33 18336276703636127953
14347329 18 18341614802159517041
15001296 14 17977379770142155857
15082195 135 18341599417971427711
15575132 122 18336830896203102901
16067690 210 18187653504753093873
16708801 149 18045759223160955197
20511986 3 16515674547090411193
20764821 26 17702949111122036625
21033648 144 17489016175580020079
21033648 29 18343574145165834579
21315764 371 16950569925383789041
23536364 44 16987743228466936096
23559900 14 18339638924088032155
23569914 2 17902189551223018717
5081480 168 16845299392296215176
5252454 2 17917153904697965435
6086070 43 17203038681853301190

> <PUBCHEM_SHAPE_MULTIPOLES>
667.32
14.82
3.84
2.86
8.34
0.49
-2.36
8.32
6.68
0.86
1.8
-1.62
0.42
1.02

> <PUBCHEM_SHAPE_SELFOVERLAP>
1454.456

> <PUBCHEM_SHAPE_VOLUME>
360.8

> <PUBCHEM_COORDINATE_TYPE>
2
5
10

$$$$
