Micafungin
  -OEChem-01222105352D

160166  0     1  0  0  0  0  0999 V2000
   11.6850   10.0958    0.0000 S   0  0  0  0  0  0  0  0  0  0  0  0
    2.8225    6.6587    0.0000 O   0  0  0  0  0  0  0  0  0  0  0  0
    6.7701    5.3318    0.0000 O   0  0  0  0  0  0  0  0  0  0  0  0
    3.6720    4.6978    0.0000 O   0  0  0  0  0  0  0  0  0  0  0  0
    6.2700    8.1978    0.0000 O   0  0  0  0  0  0  0  0  0  0  0  0
   12.2981    5.6387    0.0000 O   0  0  0  0  0  0  0  0  0  0  0  0
    4.4802    3.3151    0.0000 O   0  0  0  0  0  0  0  0  0  0  0  0
    5.7284    2.0668    0.0000 O   0  0  0  0  0  0  0  0  0  0  0  0
   10.0763    2.2581    0.0000 O   0  0  0  0  0  0  0  0  0  0  0  0
   12.0432    1.3811    0.0000 O   0  0  0  0  0  0  0  0  0  0  0  0
   10.7190    5.3714    0.0000 O   0  0  0  0  0  0  0  0  0  0  0  0
    7.1361    4.6978    0.0000 O   0  0  0  0  0  0  0  0  0  0  0  0
   12.0490    3.1209    0.0000 O   0  0  0  0  0  0  0  0  0  0  0  0
    9.2342    7.0638    0.0000 O   0  0  0  0  0  0  0  0  0  0  0  0
    7.9908    3.1512    0.0000 O   0  0  0  0  0  0  0  0  0  0  0  0
    7.1361    9.6978    0.0000 O   0  0  0  0  0  0  0  0  0  0  0  0
    9.2324    0.8694    0.0000 O   0  0  0  0  0  0  0  0  0  0  0  0
   10.9189    9.4530    0.0000 O   0  0  0  0  0  0  0  0  0  0  0  0
   12.7983    8.7689    0.0000 O   0  0  0  0  0  0  0  0  0  0  0  0
   12.4510   10.7386    0.0000 O   0  0  0  0  0  0  0  0  0  0  0  0
   11.0422   10.8618    0.0000 O   0  0  0  0  0  0  0  0  0  0  0  0
   12.3278    9.3297    0.0000 O   0  0  0  0  0  0  0  0  0  0  0  0
    7.3159   -4.8690    0.0000 O   0  0  0  0  0  0  0  0  0  0  0  0
    3.2414   -7.1274    0.0000 O   0  0  0  0  0  0  0  0  0  0  0  0
    5.4040    6.6978    0.0000 N   0  0  0  0  0  0  0  0  0  0  0  0
   11.4662    3.1978    0.0000 N   0  0  0  0  0  0  0  0  0  0  0  0
    5.4040    4.6978    0.0000 N   0  0  0  0  0  0  0  0  0  0  0  0
    8.0021    6.1978    0.0000 N   0  0  0  0  0  0  0  0  0  0  0  0
    8.8681    3.6978    0.0000 N   0  0  0  0  0  0  0  0  0  0  0  0
    9.6502    2.0424    0.0000 N   0  0  0  0  0  0  0  0  0  0  0  0
    7.5594    1.3176    0.0000 N   0  0  0  0  0  0  0  0  0  0  0  0
    8.8681    9.6978    0.0000 N   0  0  0  0  0  0  0  0  0  0  0  0
    7.8606   -4.0303    0.0000 N   0  0  0  0  0  0  0  0  0  0  0  0
    4.2061    7.7727    0.0000 C   0  0  2  0  0  0  0  0  0  0  0  0
    4.5380    6.1978    0.0000 C   0  0  1  0  0  0  0  0  0  0  0  0
    3.8010    6.8649    0.0000 C   0  0  1  0  0  0  0  0  0  0  0  0
    5.1948    7.6696    0.0000 C   0  0  0  0  0  0  0  0  0  0  0  0
    3.7061    8.6387    0.0000 C   0  0  0  0  0  0  0  0  0  0  0  0
    6.2700    6.1978    0.0000 C   0  0  0  0  0  0  0  0  0  0  0  0
    4.5380    5.1978    0.0000 C   0  0  0  0  0  0  0  0  0  0  0  0
    7.1361    6.6978    0.0000 C   0  0  2  0  0  0  0  0  0  0  0  0
   10.6002    3.6978    0.0000 C   0  0  1  0  0  0  0  0  0  0  0  0
   10.8094    4.6696    0.0000 C   0  0  0  0  0  0  0  0  0  0  0  0
    7.1361    7.6978    0.0000 C   0  0  1  0  0  0  0  0  0  0  0  0
   11.7981    4.7727    0.0000 C   0  0  2  0  0  0  0  0  0  0  0  0
   12.2032    3.8649    0.0000 C   0  0  0  0  0  0  0  0  0  0  0  0
    5.4040    3.6978    0.0000 C   0  0  1  0  0  0  0  0  0  0  0  0
    8.8681    4.6978    0.0000 C   0  0  2  0  0  0  0  0  0  0  0  0
    9.7342    3.1978    0.0000 C   0  0  0  0  0  0  0  0  0  0  0  0
   11.4662    2.1978    0.0000 C   0  0  0  0  0  0  0  0  0  0  0  0
    8.0021    5.1978    0.0000 C   0  0  0  0  0  0  0  0  0  0  0  0
    6.1111    2.9907    0.0000 C   0  0  1  0  0  0  0  0  0  0  0  0
    8.0021    8.1978    0.0000 C   0  0  0  0  0  0  0  0  0  0  0  0
   10.5162    2.5424    0.0000 C   0  0  2  0  0  0  0  0  0  0  0  0
    9.7342    5.1978    0.0000 C   0  0  1  0  0  0  0  0  0  0  0  0
    7.1111    2.9907    0.0000 C   0  0  0  0  0  0  0  0  0  0  0  0
    7.8182    2.2836    0.0000 C   0  0  1  0  0  0  0  0  0  0  0  0
   11.0801    3.3683    0.0000 C   0  0  1  0  0  0  0  0  0  0  0  0
    9.7342    6.1978    0.0000 C   0  0  2  0  0  0  0  0  0  0  0  0
    8.7842    2.5424    0.0000 C   0  0  0  0  0  0  0  0  0  0  0  0
    8.0021    9.1978    0.0000 C   0  0  0  0  0  0  0  0  0  0  0  0
   11.6439    4.1941    0.0000 C   0  0  0  0  0  0  0  0  0  0  0  0
   10.5002    6.8406    0.0000 C   0  0  0  0  0  0  0  0  0  0  0  0
    8.2665    0.6105    0.0000 C   0  0  0  0  0  0  0  0  0  0  0  0
   10.3265    7.8254    0.0000 C   0  0  0  0  0  0  0  0  0  0  0  0
   11.4399    6.4986    0.0000 C   0  0  0  0  0  0  0  0  0  0  0  0
   11.0926    8.4682    0.0000 C   0  0  0  0  0  0  0  0  0  0  0  0
   12.2059    7.1414    0.0000 C   0  0  0  0  0  0  0  0  0  0  0  0
    8.0077   -0.3554    0.0000 C   0  0  0  0  0  0  0  0  0  0  0  0
   12.0323    8.1262    0.0000 C   0  0  0  0  0  0  0  0  0  0  0  0
    7.0418   -0.6142    0.0000 C   0  0  0  0  0  0  0  0  0  0  0  0
    8.7148   -1.0625    0.0000 C   0  0  0  0  0  0  0  0  0  0  0  0
    6.7830   -1.5801    0.0000 C   0  0  0  0  0  0  0  0  0  0  0  0
    8.4560   -2.0284    0.0000 C   0  0  0  0  0  0  0  0  0  0  0  0
    7.4901   -2.2872    0.0000 C   0  0  0  0  0  0  0  0  0  0  0  0
    7.2312   -3.2532    0.0000 C   0  0  0  0  0  0  0  0  0  0  0  0
    6.2977   -3.6115    0.0000 C   0  0  0  0  0  0  0  0  0  0  0  0
    6.3500   -4.6102    0.0000 C   0  0  0  0  0  0  0  0  0  0  0  0
    5.5729   -5.2395    0.0000 C   0  0  0  0  0  0  0  0  0  0  0  0
    5.7293   -6.2272    0.0000 C   0  0  0  0  0  0  0  0  0  0  0  0
    4.6393   -4.8811    0.0000 C   0  0  0  0  0  0  0  0  0  0  0  0
    4.9521   -6.8565    0.0000 C   0  0  0  0  0  0  0  0  0  0  0  0
    3.8621   -5.5104    0.0000 C   0  0  0  0  0  0  0  0  0  0  0  0
    4.0186   -6.4981    0.0000 C   0  0  0  0  0  0  0  0  0  0  0  0
    3.3979   -8.1151    0.0000 C   0  0  0  0  0  0  0  0  0  0  0  0
    2.6207   -8.7444    0.0000 C   0  0  0  0  0  0  0  0  0  0  0  0
    2.7771   -9.7321    0.0000 C   0  0  0  0  0  0  0  0  0  0  0  0
    2.0000  -10.3615    0.0000 C   0  0  0  0  0  0  0  0  0  0  0  0
    2.1564  -11.3491    0.0000 C   0  0  0  0  0  0  0  0  0  0  0  0
    3.5869    7.7405    0.0000 H   0  0  0  0  0  0  0  0  0  0  0  0
    3.7610    5.8531    0.0000 H   0  0  0  0  0  0  0  0  0  0  0  0
    3.4114    7.3472    0.0000 H   0  0  0  0  0  0  0  0  0  0  0  0
    5.8113    7.7357    0.0000 H   0  0  0  0  0  0  0  0  0  0  0  0
    5.1939    8.2896    0.0000 H   0  0  0  0  0  0  0  0  0  0  0  0
    4.2430    8.9487    0.0000 H   0  0  0  0  0  0  0  0  0  0  0  0
    3.3961    9.1756    0.0000 H   0  0  0  0  0  0  0  0  0  0  0  0
    3.1692    8.3287    0.0000 H   0  0  0  0  0  0  0  0  0  0  0  0
    7.8722    7.1228    0.0000 H   0  0  0  0  0  0  0  0  0  0  0  0
    9.9132    4.1983    0.0000 H   0  0  0  0  0  0  0  0  0  0  0  0
    2.4084    7.1201    0.0000 H   0  0  0  0  0  0  0  0  0  0  0  0
   10.8103    5.2896    0.0000 H   0  0  0  0  0  0  0  0  0  0  0  0
   10.1929    4.7357    0.0000 H   0  0  0  0  0  0  0  0  0  0  0  0
    7.1361    8.3178    0.0000 H   0  0  0  0  0  0  0  0  0  0  0  0
   12.4173    4.7405    0.0000 H   0  0  0  0  0  0  0  0  0  0  0  0
   12.5687    3.3640    0.0000 H   0  0  0  0  0  0  0  0  0  0  0  0
   12.7397    4.1756    0.0000 H   0  0  0  0  0  0  0  0  0  0  0  0
    6.0240    4.6978    0.0000 H   0  0  0  0  0  0  0  0  0  0  0  0
    8.3121    6.7347    0.0000 H   0  0  0  0  0  0  0  0  0  0  0  0
    5.2831    3.0897    0.0000 H   0  0  0  0  0  0  0  0  0  0  0  0
    9.6042    4.2728    0.0000 H   0  0  0  0  0  0  0  0  0  0  0  0
    6.4556    2.4752    0.0000 H   0  0  0  0  0  0  0  0  0  0  0  0
    8.2142    7.6152    0.0000 H   0  0  0  0  0  0  0  0  0  0  0  0
    8.6127    8.3055    0.0000 H   0  0  0  0  0  0  0  0  0  0  0  0
    9.9383    3.1657    0.0000 H   0  0  0  0  0  0  0  0  0  0  0  0
    8.2481    3.6978    0.0000 H   0  0  0  0  0  0  0  0  0  0  0  0
    9.9462    4.6152    0.0000 H   0  0  0  0  0  0  0  0  0  0  0  0
    7.6481    3.3007    0.0000 H   0  0  0  0  0  0  0  0  0  0  0  0
    6.9507    3.5896    0.0000 H   0  0  0  0  0  0  0  0  0  0  0  0
    7.2194    2.1231    0.0000 H   0  0  0  0  0  0  0  0  0  0  0  0
   11.2990    2.7882    0.0000 H   0  0  0  0  0  0  0  0  0  0  0  0
    6.2700    8.8178    0.0000 H   0  0  0  0  0  0  0  0  0  0  0  0
    9.6502    1.4224    0.0000 H   0  0  0  0  0  0  0  0  0  0  0  0
    9.1353    6.0373    0.0000 H   0  0  0  0  0  0  0  0  0  0  0  0
   12.9181    5.6387    0.0000 H   0  0  0  0  0  0  0  0  0  0  0  0
    4.3992    2.7004    0.0000 H   0  0  0  0  0  0  0  0  0  0  0  0
    5.1137    1.9859    0.0000 H   0  0  0  0  0  0  0  0  0  0  0  0
   12.1560    3.8446    0.0000 H   0  0  0  0  0  0  0  0  0  0  0  0
   11.9935    4.7062    0.0000 H   0  0  0  0  0  0  0  0  0  0  0  0
   11.1319    4.5437    0.0000 H   0  0  0  0  0  0  0  0  0  0  0  0
    6.9606    1.1572    0.0000 H   0  0  0  0  0  0  0  0  0  0  0  0
   11.0290    5.9084    0.0000 H   0  0  0  0  0  0  0  0  0  0  0  0
   12.2165    2.5240    0.0000 H   0  0  0  0  0  0  0  0  0  0  0  0
    9.5442    7.6008    0.0000 H   0  0  0  0  0  0  0  0  0  0  0  0
    8.8681   10.3178    0.0000 H   0  0  0  0  0  0  0  0  0  0  0  0
    9.4051    9.3878    0.0000 H   0  0  0  0  0  0  0  0  0  0  0  0
    9.7439    8.0374    0.0000 H   0  0  0  0  0  0  0  0  0  0  0  0
   11.5476    5.8880    0.0000 H   0  0  0  0  0  0  0  0  0  0  0  0
   12.7885    6.9293    0.0000 H   0  0  0  0  0  0  0  0  0  0  0  0
    6.6034   -0.1758    0.0000 H   0  0  0  0  0  0  0  0  0  0  0  0
    9.3137   -0.9020    0.0000 H   0  0  0  0  0  0  0  0  0  0  0  0
   13.3809    8.5569    0.0000 H   0  0  0  0  0  0  0  0  0  0  0  0
    6.1841   -1.7406    0.0000 H   0  0  0  0  0  0  0  0  0  0  0  0
    8.8944   -2.4668    0.0000 H   0  0  0  0  0  0  0  0  0  0  0  0
   12.3434   11.3491    0.0000 H   0  0  0  0  0  0  0  0  0  0  0  0
    5.7777   -3.2738    0.0000 H   0  0  0  0  0  0  0  0  0  0  0  0
    6.3081   -6.4494    0.0000 H   0  0  0  0  0  0  0  0  0  0  0  0
    4.5423   -4.2687    0.0000 H   0  0  0  0  0  0  0  0  0  0  0  0
    5.0491   -7.4688    0.0000 H   0  0  0  0  0  0  0  0  0  0  0  0
    3.2833   -5.2882    0.0000 H   0  0  0  0  0  0  0  0  0  0  0  0
    3.6984   -8.6574    0.0000 H   0  0  0  0  0  0  0  0  0  0  0  0
    3.9841   -7.9133    0.0000 H   0  0  0  0  0  0  0  0  0  0  0  0
    2.3201   -8.2022    0.0000 H   0  0  0  0  0  0  0  0  0  0  0  0
    2.0345   -8.9463    0.0000 H   0  0  0  0  0  0  0  0  0  0  0  0
    3.0777  -10.2744    0.0000 H   0  0  0  0  0  0  0  0  0  0  0  0
    3.3634   -9.5303    0.0000 H   0  0  0  0  0  0  0  0  0  0  0  0
    1.6994   -9.8192    0.0000 H   0  0  0  0  0  0  0  0  0  0  0  0
    1.4138  -10.5633    0.0000 H   0  0  0  0  0  0  0  0  0  0  0  0
    1.5441  -11.4461    0.0000 H   0  0  0  0  0  0  0  0  0  0  0  0
    2.2534  -11.9615    0.0000 H   0  0  0  0  0  0  0  0  0  0  0  0
    2.7688  -11.2522    0.0000 H   0  0  0  0  0  0  0  0  0  0  0  0
  1 18  1  0  0  0  0
  1 20  1  0  0  0  0
  1 21  2  0  0  0  0
  1 22  2  0  0  0  0
 36  2  1  1  0  0  0
  2100  1  0  0  0  0
  3 39  2  0  0  0  0
  4 40  2  0  0  0  0
 44  5  1  6  0  0  0
  5121  1  0  0  0  0
 45  6  1  1  0  0  0
  6124  1  0  0  0  0
 47  7  1  1  0  0  0
  7125  1  0  0  0  0
 52  8  1  1  0  0  0
  8126  1  0  0  0  0
  9 49  2  0  0  0  0
 10 50  2  0  0  0  0
 55 11  1  1  0  0  0
 11131  1  0  0  0  0
 12 51  2  0  0  0  0
 58 13  1  1  0  0  0
 13132  1  0  0  0  0
 59 14  1  1  0  0  0
 14133  1  0  0  0  0
 15 60  2  0  0  0  0
 16 61  2  0  0  0  0
 17 64  2  0  0  0  0
 18 67  1  0  0  0  0
 19 70  1  0  0  0  0
 19141  1  0  0  0  0
 20144  1  0  0  0  0
 23 33  1  0  0  0  0
 23 78  1  0  0  0  0
 24 84  1  0  0  0  0
 24 85  1  0  0  0  0
 25 35  1  0  0  0  0
 25 37  1  0  0  0  0
 25 39  1  0  0  0  0
 26 42  1  0  0  0  0
 26 46  1  0  0  0  0
 26 50  1  0  0  0  0
 27 40  1  0  0  0  0
 27 47  1  0  0  0  0
 27107  1  0  0  0  0
 28 41  1  0  0  0  0
 28 51  1  0  0  0  0
 28108  1  0  0  0  0
 29 48  1  0  0  0  0
 29 49  1  0  0  0  0
 29115  1  0  0  0  0
 30 54  1  0  0  0  0
 30 60  1  0  0  0  0
 30122  1  0  0  0  0
 57 31  1  1  0  0  0
 31 64  1  0  0  0  0
 31130  1  0  0  0  0
 32 61  1  0  0  0  0
 32134  1  0  0  0  0
 32135  1  0  0  0  0
 33 76  2  0  0  0  0
 34 36  1  0  0  0  0
 34 37  1  0  0  0  0
 34 38  1  1  0  0  0
 34 90  1  0  0  0  0
 35 36  1  0  0  0  0
 35 40  1  0  0  0  0
 35 91  1  1  0  0  0
 36 92  1  0  0  0  0
 37 93  1  0  0  0  0
 37 94  1  0  0  0  0
 38 95  1  0  0  0  0
 38 96  1  0  0  0  0
 38 97  1  0  0  0  0
 39 41  1  0  0  0  0
 41 44  1  0  0  0  0
 41 98  1  1  0  0  0
 42 43  1  0  0  0  0
 42 49  1  0  0  0  0
 42 99  1  1  0  0  0
 43 45  1  0  0  0  0
 43101  1  0  0  0  0
 43102  1  0  0  0  0
 44 53  1  0  0  0  0
 44103  1  0  0  0  0
 45 46  1  0  0  0  0
 45104  1  0  0  0  0
 46105  1  0  0  0  0
 46106  1  0  0  0  0
 47 52  1  0  0  0  0
 47109  1  0  0  0  0
 48 51  1  0  0  0  0
 48 55  1  0  0  0  0
 48110  1  1  0  0  0
 50 54  1  0  0  0  0
 52 56  1  0  0  0  0
 52111  1  0  0  0  0
 53 61  1  0  0  0  0
 53112  1  0  0  0  0
 53113  1  0  0  0  0
 54 58  1  0  0  0  0
 54114  1  6  0  0  0
 55 59  1  0  0  0  0
 55116  1  0  0  0  0
 56 57  1  0  0  0  0
 56117  1  0  0  0  0
 56118  1  0  0  0  0
 57 60  1  0  0  0  0
 57119  1  0  0  0  0
 58 62  1  0  0  0  0
 58120  1  0  0  0  0
 59 63  1  0  0  0  0
 59123  1  0  0  0  0
 62127  1  0  0  0  0
 62128  1  0  0  0  0
 62129  1  0  0  0  0
 63 65  2  0  0  0  0
 63 66  1  0  0  0  0
 64 69  1  0  0  0  0
 65 67  1  0  0  0  0
 65136  1  0  0  0  0
 66 68  2  0  0  0  0
 66137  1  0  0  0  0
 67 70  2  0  0  0  0
 68 70  1  0  0  0  0
 68138  1  0  0  0  0
 69 71  2  0  0  0  0
 69 72  1  0  0  0  0
 71 73  1  0  0  0  0
 71139  1  0  0  0  0
 72 74  2  0  0  0  0
 72140  1  0  0  0  0
 73 75  2  0  0  0  0
 73142  1  0  0  0  0
 74 75  1  0  0  0  0
 74143  1  0  0  0  0
 75 76  1  0  0  0  0
 76 77  1  0  0  0  0
 77 78  2  0  0  0  0
 77145  1  0  0  0  0
 78 79  1  0  0  0  0
 79 80  2  0  0  0  0
 79 81  1  0  0  0  0
 80 82  1  0  0  0  0
 80146  1  0  0  0  0
 81 83  2  0  0  0  0
 81147  1  0  0  0  0
 82 84  2  0  0  0  0
 82148  1  0  0  0  0
 83 84  1  0  0  0  0
 83149  1  0  0  0  0
 85 86  1  0  0  0  0
 85150  1  0  0  0  0
 85151  1  0  0  0  0
 86 87  1  0  0  0  0
 86152  1  0  0  0  0
 86153  1  0  0  0  0
 87 88  1  0  0  0  0
 87154  1  0  0  0  0
 87155  1  0  0  0  0
 88 89  1  0  0  0  0
 88156  1  0  0  0  0
 88157  1  0  0  0  0
 89158  1  0  0  0  0
 89159  1  0  0  0  0
 89160  1  0  0  0  0
M  END
> <PUBCHEM_COMPOUND_CID>
477468

> <PUBCHEM_COMPOUND_CANONICALIZED>
1

> <PUBCHEM_CACTVS_COMPLEXITY>
2580

> <PUBCHEM_CACTVS_HBOND_ACCEPTOR>
24

> <PUBCHEM_CACTVS_HBOND_DONOR>
16

> <PUBCHEM_CACTVS_ROTATABLE_BOND>
18

> <PUBCHEM_CACTVS_SUBSKEYS>
AAADcfB//gBAAAAAAAAAAAAAAAAAAWLFgAAwYMAAAAAAAAAB1AAAHgAUCAAADTzhngYyhpPQBoCpA6VyUjCCCAAkIgAomKG+7NsPdr6GtbuWeanm9hmZ+cf+//7OYAABAAAAQADAAAIAAACAAAAAAAAAAA==

> <PUBCHEM_IUPAC_OPENEYE_NAME>
[5-[(1S,2S)-2-[(3S,6S,9S,11R,15S,18S,20R,21R,24S,25S,26S)-3-[(1R)-3-amino-1-hydroxy-3-oxo-propyl]-11,20,21,25-tetrahydroxy-15-[(1R)-1-hydroxyethyl]-26-methyl-2,5,8,14,17,23-hexaoxo-18-[[4-[5-(4-pentoxyphenyl)isoxazol-3-yl]benzoyl]amino]-1,4,7,13,16,22-hexazatricyclo[22.3.0.09,13]heptacosan-6-yl]-1,2-dihydroxy-ethyl]-2-hydroxy-phenyl] hydrogen sulfate

> <PUBCHEM_IUPAC_CAS_NAME>
sulfuric acid [5-[(1S,2S)-2-[(3S,6S,9S,11R,15S,18S,20R,21R,24S,25S,26S)-3-[(1R)-3-amino-1-hydroxy-3-oxopropyl]-11,20,21,25-tetrahydroxy-15-[(1R)-1-hydroxyethyl]-26-methyl-2,5,8,14,17,23-hexaoxo-18-[[oxo-[4-[5-(4-pentoxyphenyl)-3-isoxazolyl]phenyl]methyl]amino]-1,4,7,13,16,22-hexazatricyclo[22.3.0.09,13]heptacosan-6-yl]-1,2-dihydroxyethyl]-2-hydroxyphenyl] ester

> <PUBCHEM_IUPAC_NAME_MARKUP>
[5-[(1<I>S</I>,2<I>S</I>)-2-[(3<I>S</I>,6<I>S</I>,9<I>S</I>,11<I>R</I>,15<I>S</I>,18<I>S</I>,20<I>R</I>,21<I>R</I>,24<I>S</I>,25<I>S</I>,26<I>S</I>)-3-[(1<I>R</I>)-3-amino-1-hydroxy-3-oxopropyl]-11,20,21,25-tetrahydroxy-15-[(1<I>R</I>)-1-hydroxyethyl]-26-methyl-2,5,8,14,17,23-hexaoxo-18-[[4-[5-(4-pentoxyphenyl)-1,2-oxazol-3-yl]benzoyl]amino]-1,4,7,13,16,22-hexazatricyclo[22.3.0.0<SUP>9,13</SUP>]heptacosan-6-yl]-1,2-dihydroxyethyl]-2-hydroxyphenyl] hydrogen sulfate

> <PUBCHEM_IUPAC_NAME>
[5-[(1S,2S)-2-[(3S,6S,9S,11R,15S,18S,20R,21R,24S,25S,26S)-3-[(1R)-3-amino-1-hydroxy-3-oxopropyl]-11,20,21,25-tetrahydroxy-15-[(1R)-1-hydroxyethyl]-26-methyl-2,5,8,14,17,23-hexaoxo-18-[[4-[5-(4-pentoxyphenyl)-1,2-oxazol-3-yl]benzoyl]amino]-1,4,7,13,16,22-hexazatricyclo[22.3.0.09,13]heptacosan-6-yl]-1,2-dihydroxyethyl]-2-hydroxyphenyl] hydrogen sulfate

> <PUBCHEM_IUPAC_SYSTEMATIC_NAME>
[5-[(1S,2S)-2-[(3S,6S,9S,11R,15S,18S,20R,21R,24S,25S,26S)-3-[(1R)-3-azanyl-1-oxidanyl-3-oxidanylidene-propyl]-26-methyl-11,20,21,25-tetrakis(oxidanyl)-15-[(1R)-1-oxidanylethyl]-2,5,8,14,17,23-hexakis(oxidanylidene)-18-[[4-[5-(4-pentoxyphenyl)-1,2-oxazol-3-yl]phenyl]carbonylamino]-1,4,7,13,16,22-hexazatricyclo[22.3.0.09,13]heptacosan-6-yl]-1,2-bis(oxidanyl)ethyl]-2-oxidanyl-phenyl] hydrogen sulfate

> <PUBCHEM_IUPAC_TRADITIONAL_NAME>
sulfuric acid [5-[(1S,2S)-2-[(3S,6S,9S,11R,15S,18S,20R,21R,24S,25S,26S)-3-[(1R)-3-amino-1-hydroxy-3-keto-propyl]-18-[[4-[5-(4-amoxyphenyl)isoxazol-3-yl]benzoyl]amino]-11,20,21,25-tetrahydroxy-15-[(1R)-1-hydroxyethyl]-2,5,8,14,17,23-hexaketo-26-methyl-1,4,7,13,16,22-hexazatricyclo[22.3.0.09,13]heptacosan-6-yl]-1,2-dihydroxy-ethyl]-2-hydroxy-phenyl] ester

> <PUBCHEM_IUPAC_INCHI>
InChI=1S/C56H71N9O23S/c1-4-5-6-17-86-32-14-11-28(12-15-32)39-21-33(63-87-39)27-7-9-29(10-8-27)49(75)58-34-20-38(70)52(78)62-54(80)45-46(72)25(2)23-65(45)56(82)43(37(69)22-41(57)71)60-53(79)44(48(74)47(73)30-13-16-36(68)40(18-30)88-89(83,84)85)61-51(77)35-19-31(67)24-64(35)55(81)42(26(3)66)59-50(34)76/h7-16,18,21,25-26,31,34-35,37-38,42-48,52,66-70,72-74,78H,4-6,17,19-20,22-24H2,1-3H3,(H2,57,71)(H,58,75)(H,59,76)(H,60,79)(H,61,77)(H,62,80)(H,83,84,85)/t25-,26+,31+,34-,35-,37+,38+,42-,43-,44-,45-,46-,47-,48-,52+/m0/s1

> <PUBCHEM_IUPAC_INCHIKEY>
PIEUQSKUWLMALL-YABMTYFHSA-N

> <PUBCHEM_XLOGP3_AA>
-1.6

> <PUBCHEM_EXACT_MASS>
1269.438351

> <PUBCHEM_MOLECULAR_FORMULA>
C56H71N9O23S

> <PUBCHEM_MOLECULAR_WEIGHT>
1270.3

> <PUBCHEM_OPENEYE_CAN_SMILES>
CCCCCOC1=CC=C(C=C1)C2=CC(=NO2)C3=CC=C(C=C3)C(=O)NC4CC(C(NC(=O)C5C(C(CN5C(=O)C(NC(=O)C(NC(=O)C6CC(CN6C(=O)C(NC4=O)C(C)O)O)C(C(C7=CC(=C(C=C7)O)OS(=O)(=O)O)O)O)C(CC(=O)N)O)C)O)O)O

> <PUBCHEM_OPENEYE_ISO_SMILES>
CCCCCOC1=CC=C(C=C1)C2=CC(=NO2)C3=CC=C(C=C3)C(=O)N[C@H]4C[C@H]([C@H](NC(=O)[C@@H]5[C@H]([C@H](CN5C(=O)[C@@H](NC(=O)[C@@H](NC(=O)[C@@H]6C[C@H](CN6C(=O)[C@@H](NC4=O)[C@@H](C)O)O)[C@@H]([C@H](C7=CC(=C(C=C7)O)OS(=O)(=O)O)O)O)[C@@H](CC(=O)N)O)C)O)O)O

> <PUBCHEM_CACTVS_TPSA>
519

> <PUBCHEM_MONOISOTOPIC_WEIGHT>
1269.438351

> <PUBCHEM_TOTAL_CHARGE>
0

> <PUBCHEM_HEAVY_ATOM_COUNT>
89

> <PUBCHEM_ATOM_DEF_STEREO_COUNT>
15

> <PUBCHEM_ATOM_UDEF_STEREO_COUNT>
0

> <PUBCHEM_BOND_DEF_STEREO_COUNT>
0

> <PUBCHEM_BOND_UDEF_STEREO_COUNT>
0

> <PUBCHEM_ISOTOPIC_ATOM_COUNT>
0

> <PUBCHEM_COMPONENT_COUNT>
1

> <PUBCHEM_CACTVS_TAUTO_COUNT>
-1

> <PUBCHEM_COORDINATE_TYPE>
1
5
255

> <PUBCHEM_BONDANNOTATIONS>
55  11  5
58  13  5
59  14  5
36  2  5
23  33  8
23  78  8
57  31  5
33  76  8
34  38  5
35  91  5
41  98  5
42  99  5
48  110  5
44  5  6
54  114  6
45  6  5
63  65  8
63  66  8
65  67  8
66  68  8
67  70  8
68  70  8
69  71  8
69  72  8
47  7  5
71  73  8
72  74  8
73  75  8
74  75  8
76  77  8
77  78  8
79  80  8
79  81  8
52  8  5
80  82  8
81  83  8
82  84  8
83  84  8

$$$$
