Nordazepam, TMS derivative
  -OEChem-12152007093D

 42 44  0     0  0  0  0  0  0999 V2000
    1.2048   -4.5929   -0.5325 Cl  0  0  0  0  0  0  0  0  0  0  0  0
   -3.2961    0.6366    1.0169 Si  0  0  0  0  0  0  0  0  0  0  0  0
   -2.3313    2.6902   -0.9173 O   0  0  0  0  0  0  0  0  0  0  0  0
   -1.9629    0.4882   -0.1730 N   0  0  0  0  0  0  0  0  0  0  0  0
    0.5671    1.5406   -1.4669 N   0  0  0  0  0  0  0  0  0  0  0  0
   -1.1762   -0.7169   -0.2279 C   0  0  0  0  0  0  0  0  0  0  0  0
   -2.8511   -0.3797    2.5034 C   0  0  0  0  0  0  0  0  0  0  0  0
   -3.4636    2.4293    1.4628 C   0  0  0  0  0  0  0  0  0  0  0  0
   -4.8456    0.0028    0.2183 C   0  0  0  0  0  0  0  0  0  0  0  0
   -1.7495    1.6042   -1.0000 C   0  0  0  0  0  0  0  0  0  0  0  0
    0.2023   -0.7052   -0.5381 C   0  0  0  0  0  0  0  0  0  0  0  0
   -0.7306    1.4139   -2.0990 C   0  0  0  0  0  0  0  0  0  0  0  0
    0.9727    0.5589   -0.7336 C   0  0  0  0  0  0  0  0  0  0  0  0
   -1.7684   -1.9754    0.0155 C   0  0  0  0  0  0  0  0  0  0  0  0
    0.9273   -1.9072   -0.6421 C   0  0  0  0  0  0  0  0  0  0  0  0
    2.2851    0.7192   -0.0432 C   0  0  0  0  0  0  0  0  0  0  0  0
   -1.0369   -3.1637   -0.0710 C   0  0  0  0  0  0  0  0  0  0  0  0
    0.3087   -3.1302   -0.4066 C   0  0  0  0  0  0  0  0  0  0  0  0
    2.5018    0.0874    1.1756 C   0  0  0  0  0  0  0  0  0  0  0  0
    3.2776    1.4982   -0.6259 C   0  0  0  0  0  0  0  0  0  0  0  0
    3.7292    0.2370    1.8213 C   0  0  0  0  0  0  0  0  0  0  0  0
    4.5050    1.6476    0.0199 C   0  0  0  0  0  0  0  0  0  0  0  0
    4.7307    1.0170    1.2434 C   0  0  0  0  0  0  0  0  0  0  0  0
   -1.7915   -0.2790    2.7589 H   0  0  0  0  0  0  0  0  0  0  0  0
   -3.4244   -0.0383    3.3721 H   0  0  0  0  0  0  0  0  0  0  0  0
   -3.0779   -1.4420    2.3834 H   0  0  0  0  0  0  0  0  0  0  0  0
   -4.0266    3.0009    0.7191 H   0  0  0  0  0  0  0  0  0  0  0  0
   -4.0235    2.5202    2.4004 H   0  0  0  0  0  0  0  0  0  0  0  0
   -2.4939    2.9084    1.6302 H   0  0  0  0  0  0  0  0  0  0  0  0
   -4.7847   -1.0571   -0.0401 H   0  0  0  0  0  0  0  0  0  0  0  0
   -5.7021    0.1271    0.8886 H   0  0  0  0  0  0  0  0  0  0  0  0
   -5.0637    0.5557   -0.7010 H   0  0  0  0  0  0  0  0  0  0  0  0
   -0.8745    0.4756   -2.6456 H   0  0  0  0  0  0  0  0  0  0  0  0
   -0.8524    2.2189   -2.8321 H   0  0  0  0  0  0  0  0  0  0  0  0
   -2.8287   -2.0888    0.2120 H   0  0  0  0  0  0  0  0  0  0  0  0
    1.9804   -1.8925   -0.9167 H   0  0  0  0  0  0  0  0  0  0  0  0
   -1.5430   -4.1092    0.1077 H   0  0  0  0  0  0  0  0  0  0  0  0
    1.7340   -0.5005    1.6699 H   0  0  0  0  0  0  0  0  0  0  0  0
    3.1281    1.9916   -1.5821 H   0  0  0  0  0  0  0  0  0  0  0  0
    3.9028   -0.2479    2.7776 H   0  0  0  0  0  0  0  0  0  0  0  0
    5.2857    2.2535   -0.4306 H   0  0  0  0  0  0  0  0  0  0  0  0
    5.6858    1.1345    1.7469 H   0  0  0  0  0  0  0  0  0  0  0  0
  1 18  1  0  0  0  0
  2  4  1  0  0  0  0
  2  7  1  0  0  0  0
  2  8  1  0  0  0  0
  2  9  1  0  0  0  0
  3 10  2  0  0  0  0
  4  6  1  0  0  0  0
  4 10  1  0  0  0  0
  5 12  1  0  0  0  0
  5 13  2  0  0  0  0
  6 11  2  0  0  0  0
  6 14  1  0  0  0  0
  7 24  1  0  0  0  0
  7 25  1  0  0  0  0
  7 26  1  0  0  0  0
  8 27  1  0  0  0  0
  8 28  1  0  0  0  0
  8 29  1  0  0  0  0
  9 30  1  0  0  0  0
  9 31  1  0  0  0  0
  9 32  1  0  0  0  0
 10 12  1  0  0  0  0
 11 13  1  0  0  0  0
 11 15  1  0  0  0  0
 12 33  1  0  0  0  0
 12 34  1  0  0  0  0
 13 16  1  0  0  0  0
 14 17  2  0  0  0  0
 14 35  1  0  0  0  0
 15 18  2  0  0  0  0
 15 36  1  0  0  0  0
 16 19  2  0  0  0  0
 16 20  1  0  0  0  0
 17 18  1  0  0  0  0
 17 37  1  0  0  0  0
 19 21  1  0  0  0  0
 19 38  1  0  0  0  0
 20 22  2  0  0  0  0
 20 39  1  0  0  0  0
 21 23  2  0  0  0  0
 21 40  1  0  0  0  0
 22 23  1  0  0  0  0
 22 41  1  0  0  0  0
 23 42  1  0  0  0  0
M  END
> <PUBCHEM_COMPOUND_CID>
41390

> <PUBCHEM_CONFORMER_RMSD>
0.6

> <PUBCHEM_CONFORMER_DIVERSEORDER>
1
2

> <PUBCHEM_MMFF94_PARTIAL_CHARGES>
31
1 -0.18
10 0.57
11 0.09
12 0.31
13 0.28
14 -0.15
15 -0.15
16 0.09
17 -0.15
18 0.18
19 -0.15
2 0.58
20 -0.15
21 -0.15
22 -0.15
23 -0.15
3 -0.57
35 0.15
36 0.15
37 0.15
38 0.15
39 0.15
4 -0.51
40 0.15
41 0.15
42 0.15
5 -0.7
6 0.12
7 -0.08
8 -0.08
9 -0.08

> <PUBCHEM_EFFECTIVE_ROTOR_COUNT>
2.4

> <PUBCHEM_PHARMACOPHORE_FEATURES>
5
1 3 acceptor
1 5 acceptor
6 16 19 20 21 22 23 rings
6 6 11 14 15 17 18 rings
7 4 5 6 10 11 12 13 rings

> <PUBCHEM_HEAVY_ATOM_COUNT>
23

> <PUBCHEM_ATOM_DEF_STEREO_COUNT>
0

> <PUBCHEM_ATOM_UDEF_STEREO_COUNT>
0

> <PUBCHEM_BOND_DEF_STEREO_COUNT>
0

> <PUBCHEM_BOND_UDEF_STEREO_COUNT>
0

> <PUBCHEM_ISOTOPIC_ATOM_COUNT>
0

> <PUBCHEM_COMPONENT_COUNT>
1

> <PUBCHEM_CACTVS_TAUTO_COUNT>
1

> <PUBCHEM_CONFORMER_ID>
0000A1AE00000001

> <PUBCHEM_MMFF94_ENERGY>
94.592

> <PUBCHEM_FEATURE_SELFOVERLAP>
25.384

> <PUBCHEM_SHAPE_FINGERPRINT>
10165383 225 18342187669392865288
10906281 52 17895206467618641141
11370993 70 18343023285117979761
11552529 35 17982438597703604258
11578080 2 18127134070353380913
11640471 11 17058349406762757281
11725454 13 17132117943856707704
12403814 3 18114173172649029953
12553582 1 17614268293090023478
12633257 1 18271245035874790168
12788726 201 17688600771953022146
12839892 36 18409167748893570195
12930653 34 18341620252932152873
13004483 165 17832123288785490002
13140716 1 18119813766231266789
133893 2 17838589203077689350
13583140 156 16950550095836696996
13965767 371 18335145245523892257
13994607 96 17130708473119110136
14178342 30 18263948608488757283
14787075 74 17846494889735255825
15230672 131 18409735033476770022
15295992 7 17489015080827505800
15309172 13 18410289220372495988
15475509 84 17250632339837395419
16110190 28 18118375408287604234
16945 1 18336275599649262101
17349148 13 18188217593378679203
17357779 13 11674874545607327664
1813 80 11963390730241759211
18785283 64 18266741281913459298
19862831 5 11743845746050333024
20028762 73 18056764458444766647
20261772 1 18260265295737919232
20600515 1 17115746434699496122
21033648 29 18270382958819404648
21120745 212 17474397245450369804
21202864 24 18338517568282884364
21524375 3 18131351916382708983
21731228 192 18410289211856284594
21756936 100 17917985105692760104
22112679 90 17829620796078049748
22149856 69 18052577385744052251
22182313 1 17970348114330648645
23419403 2 17759524369885612167
23559900 14 17753631056765383023
25222932 49 15941808762318975265
2748010 2 17971757666514701103
350125 39 18339648823676555966
35225 105 18058434551591400787
392239 28 17916597573731908803
427121 178 17915490287791261955
4340502 62 18202291299280519499
458136 41 18341058402115345078
484985 159 15865166062673970912
495365 180 18053106125497294441
5171179 24 17977100154891344871
5265222 85 18265078924002146366
58807428 26 18410015454725133026
59755656 520 17988921184568281454
6992083 37 18116996787091173742
7064713 232 18411419531121106969
81228 2 17909821368973684166
9862522 239 18261941990497831260
9981440 41 18194097664930658129

> <PUBCHEM_SHAPE_MULTIPOLES>
477.58
7.64
3.94
1.76
2.74
5.51
-0.43
-5.57
-4.01
0.45
0.91
-0.3
-0.86
0.28

> <PUBCHEM_SHAPE_SELFOVERLAP>
1004.973

> <PUBCHEM_SHAPE_VOLUME>
271.7

> <PUBCHEM_COORDINATE_TYPE>
2
5
10

$$$$
