SA6_0010
  -OEChem-07172407062D

 92 96  0     1  0  0  0  0  0999 V2000
    5.8703    0.0000    0.0000 Br  0  5  0  0  0  0  0  0  0  0  0  0
    8.9751    7.4630    0.0000 O   0  0  0  0  0  0  0  0  0  0  0  0
    2.3251    3.1554    0.0000 O   0  0  0  0  0  0  0  0  0  0  0  0
    0.6209    6.2670    0.0000 O   0  0  0  0  0  0  0  0  0  0  0  0
    7.3287    8.0011    0.0000 O   0  0  0  0  0  0  0  0  0  0  0  0
   10.2480    5.7078    0.0000 N   0  3  0  0  0  0  0  0  0  0  0  0
    2.3412    5.2470    0.0000 N   0  0  0  0  0  0  0  0  0  0  0  0
    7.7182    5.2078    0.0000 C   0  0  2  0  0  0  0  0  0  0  0  0
    7.7182    6.2078    0.0000 C   0  0  1  0  0  0  0  0  0  0  0  0
    6.8522    4.7078    0.0000 C   0  0  1  0  0  0  0  0  0  0  0  0
    5.9861    5.2078    0.0000 C   0  0  1  0  0  0  0  0  0  0  0  0
    5.0761    4.7009    0.0000 C   0  0  2  0  0  0  0  0  0  0  0  0
    9.2480    5.7078    0.0000 C   0  0  2  0  0  0  0  0  0  0  0  0
    8.6644    6.5125    0.0000 C   0  0  2  0  0  0  0  0  0  0  0  0
    8.6644    4.9030    0.0000 C   0  0  0  0  0  0  0  0  0  0  0  0
    6.8522    6.7078    0.0000 C   0  0  0  0  0  0  0  0  0  0  0  0
    5.0681    3.6593    0.0000 C   0  0  1  0  0  0  0  0  0  0  0  0
    5.9861    6.2078    0.0000 C   0  0  0  0  0  0  0  0  0  0  0  0
    6.8682    3.6662    0.0000 C   0  0  0  0  0  0  0  0  0  0  0  0
    5.9702    3.1385    0.0000 C   0  0  0  0  0  0  0  0  0  0  0  0
    4.1493    5.2650    0.0000 C   0  0  0  0  0  0  0  0  0  0  0  0
    7.7182    7.2078    0.0000 C   0  0  0  0  0  0  0  0  0  0  0  0
    4.1327    3.1096    0.0000 C   0  0  0  0  0  0  0  0  0  0  0  0
    3.2014    4.7370    0.0000 C   0  0  1  0  0  0  0  0  0  0  0  0
    5.0838    5.7009    0.0000 C   0  0  0  0  0  0  0  0  0  0  0  0
   11.1991    5.3987    0.0000 C   0  0  0  0  0  0  0  0  0  0  0  0
   10.2480    6.7078    0.0000 C   0  0  0  0  0  0  0  0  0  0  0  0
    3.1930    3.6521    0.0000 C   0  0  1  0  0  0  0  0  0  0  0  0
    9.9390    4.7567    0.0000 C   0  0  0  0  0  0  0  0  0  0  0  0
   11.7869    6.2078    0.0000 C   0  0  0  0  0  0  0  0  0  0  0  0
   11.1991    7.0168    0.0000 C   0  0  0  0  0  0  0  0  0  0  0  0
   10.6081    4.0136    0.0000 C   0  0  0  0  0  0  0  0  0  0  0  0
    8.3072    8.2073    0.0000 C   0  0  0  0  0  0  0  0  0  0  0  0
    1.4695    4.7571    0.0000 C   0  0  0  0  0  0  0  0  0  0  0  0
    2.3528    6.2470    0.0000 C   0  0  0  0  0  0  0  0  0  0  0  0
    0.6093    5.2671    0.0000 C   0  0  0  0  0  0  0  0  0  0  0  0
    1.4926    6.7569    0.0000 C   0  0  0  0  0  0  0  0  0  0  0  0
    8.6179    9.1578    0.0000 C   0  0  0  0  0  0  0  0  0  0  0  0
   10.2991    3.0625    0.0000 C   0  0  0  0  0  0  0  0  0  0  0  0
    7.8081    4.3625    0.0000 H   0  0  0  0  0  0  0  0  0  0  0  0
    7.5915    4.2884    0.0000 H   0  0  0  0  0  0  0  0  0  0  0  0
    6.7223    5.6328    0.0000 H   0  0  0  0  0  0  0  0  0  0  0  0
    9.6342    4.9506    0.0000 H   0  0  0  0  0  0  0  0  0  0  0  0
    9.2769    6.6087    0.0000 H   0  0  0  0  0  0  0  0  0  0  0  0
    8.4134    4.3361    0.0000 H   0  0  0  0  0  0  0  0  0  0  0  0
    9.2018    4.5938    0.0000 H   0  0  0  0  0  0  0  0  0  0  0  0
    7.2507    7.1827    0.0000 H   0  0  0  0  0  0  0  0  0  0  0  0
    6.4536    7.1827    0.0000 H   0  0  0  0  0  0  0  0  0  0  0  0
    5.0714    2.8093    0.0000 H   0  0  0  0  0  0  0  0  0  0  0  0
    5.7741    6.7904    0.0000 H   0  0  0  0  0  0  0  0  0  0  0  0
    5.3756    6.1001    0.0000 H   0  0  0  0  0  0  0  0  0  0  0  0
    7.0862    3.0859    0.0000 H   0  0  0  0  0  0  0  0  0  0  0  0
    7.4774    3.7818    0.0000 H   0  0  0  0  0  0  0  0  0  0  0  0
    5.5729    2.6625    0.0000 H   0  0  0  0  0  0  0  0  0  0  0  0
    6.3712    2.6656    0.0000 H   0  0  0  0  0  0  0  0  0  0  0  0
    4.5575    5.7316    0.0000 H   0  0  0  0  0  0  0  0  0  0  0  0
    3.7594    5.7470    0.0000 H   0  0  0  0  0  0  0  0  0  0  0  0
    8.3382    7.2078    0.0000 H   0  0  0  0  0  0  0  0  0  0  0  0
    7.7182    7.8278    0.0000 H   0  0  0  0  0  0  0  0  0  0  0  0
    7.0982    7.2078    0.0000 H   0  0  0  0  0  0  0  0  0  0  0  0
    3.7354    2.6336    0.0000 H   0  0  0  0  0  0  0  0  0  0  0  0
    4.5336    2.6367    0.0000 H   0  0  0  0  0  0  0  0  0  0  0  0
    2.6615    4.4322    0.0000 H   0  0  0  0  0  0  0  0  0  0  0  0
    5.7038    5.6961    0.0000 H   0  0  0  0  0  0  0  0  0  0  0  0
    5.0886    6.3209    0.0000 H   0  0  0  0  0  0  0  0  0  0  0  0
    4.4639    5.7057    0.0000 H   0  0  0  0  0  0  0  0  0  0  0  0
   10.9469    4.8323    0.0000 H   0  0  0  0  0  0  0  0  0  0  0  0
   11.7360    5.0887    0.0000 H   0  0  0  0  0  0  0  0  0  0  0  0
   10.1191    7.3142    0.0000 H   0  0  0  0  0  0  0  0  0  0  0  0
    9.6314    6.6430    0.0000 H   0  0  0  0  0  0  0  0  0  0  0  0
    3.1919    3.0321    0.0000 H   0  0  0  0  0  0  0  0  0  0  0  0
    9.3916    5.0478    0.0000 H   0  0  0  0  0  0  0  0  0  0  0  0
    9.5573    4.2681    0.0000 H   0  0  0  0  0  0  0  0  0  0  0  0
   12.2476    5.7929    0.0000 H   0  0  0  0  0  0  0  0  0  0  0  0
   12.2476    6.6226    0.0000 H   0  0  0  0  0  0  0  0  0  0  0  0
   11.7360    7.3268    0.0000 H   0  0  0  0  0  0  0  0  0  0  0  0
   10.9469    7.5832    0.0000 H   0  0  0  0  0  0  0  0  0  0  0  0
   11.2146    4.1425    0.0000 H   0  0  0  0  0  0  0  0  0  0  0  0
    2.3227    2.5354    0.0000 H   0  0  0  0  0  0  0  0  0  0  0  0
    1.0655    4.2868    0.0000 H   0  0  0  0  0  0  0  0  0  0  0  0
    1.8625    4.2776    0.0000 H   0  0  0  0  0  0  0  0  0  0  0  0
    2.9621    6.1322    0.0000 H   0  0  0  0  0  0  0  0  0  0  0  0
    2.5716    6.8271    0.0000 H   0  0  0  0  0  0  0  0  0  0  0  0
    0.0000    5.3818    0.0000 H   0  0  0  0  0  0  0  0  0  0  0  0
    0.3905    4.6869    0.0000 H   0  0  0  0  0  0  0  0  0  0  0  0
    1.8966    7.2272    0.0000 H   0  0  0  0  0  0  0  0  0  0  0  0
    1.0996    7.2365    0.0000 H   0  0  0  0  0  0  0  0  0  0  0  0
    9.2072    8.9652    0.0000 H   0  0  0  0  0  0  0  0  0  0  0  0
    8.8105    9.7472    0.0000 H   0  0  0  0  0  0  0  0  0  0  0  0
    8.0286    9.3504    0.0000 H   0  0  0  0  0  0  0  0  0  0  0  0
    9.6927    2.9336    0.0000 H   0  0  0  0  0  0  0  0  0  0  0  0
   10.7140    2.6018    0.0000 H   0  0  0  0  0  0  0  0  0  0  0  0
 14  2  1  1  0  0  0
  2 33  1  0  0  0  0
 28  3  1  6  0  0  0
  3 79  1  0  0  0  0
  4 36  1  0  0  0  0
  4 37  1  0  0  0  0
  5 33  2  0  0  0  0
  6 13  1  0  0  0  0
  6 26  1  0  0  0  0
  6 27  1  0  0  0  0
  6 29  1  0  0  0  0
 24  7  1  1  0  0  0
  7 34  1  0  0  0  0
  7 35  1  0  0  0  0
  8  9  1  0  0  0  0
  8 10  1  0  0  0  0
  8 15  1  0  0  0  0
  8 40  1  6  0  0  0
  9 14  1  0  0  0  0
  9 16  1  0  0  0  0
  9 22  1  1  0  0  0
 10 11  1  0  0  0  0
 10 19  1  0  0  0  0
 10 41  1  1  0  0  0
 11 12  1  0  0  0  0
 11 18  1  0  0  0  0
 11 42  1  6  0  0  0
 12 17  1  0  0  0  0
 12 21  1  0  0  0  0
 12 25  1  1  0  0  0
 13 14  1  0  0  0  0
 13 15  1  0  0  0  0
 13 43  1  6  0  0  0
 14 44  1  0  0  0  0
 15 45  1  0  0  0  0
 15 46  1  0  0  0  0
 16 18  1  0  0  0  0
 16 47  1  0  0  0  0
 16 48  1  0  0  0  0
 17 20  1  0  0  0  0
 17 23  1  0  0  0  0
 17 49  1  6  0  0  0
 18 50  1  0  0  0  0
 18 51  1  0  0  0  0
 19 20  1  0  0  0  0
 19 52  1  0  0  0  0
 19 53  1  0  0  0  0
 20 54  1  0  0  0  0
 20 55  1  0  0  0  0
 21 24  1  0  0  0  0
 21 56  1  0  0  0  0
 21 57  1  0  0  0  0
 22 58  1  0  0  0  0
 22 59  1  0  0  0  0
 22 60  1  0  0  0  0
 23 28  1  0  0  0  0
 23 61  1  0  0  0  0
 23 62  1  0  0  0  0
 24 28  1  0  0  0  0
 24 63  1  0  0  0  0
 25 64  1  0  0  0  0
 25 65  1  0  0  0  0
 25 66  1  0  0  0  0
 26 30  1  0  0  0  0
 26 67  1  0  0  0  0
 26 68  1  0  0  0  0
 27 31  1  0  0  0  0
 27 69  1  0  0  0  0
 27 70  1  0  0  0  0
 28 71  1  0  0  0  0
 29 32  1  0  0  0  0
 29 72  1  0  0  0  0
 29 73  1  0  0  0  0
 30 31  1  0  0  0  0
 30 74  1  0  0  0  0
 30 75  1  0  0  0  0
 31 76  1  0  0  0  0
 31 77  1  0  0  0  0
 32 39  2  0  0  0  0
 32 78  1  0  0  0  0
 33 38  1  0  0  0  0
 34 36  1  0  0  0  0
 34 80  1  0  0  0  0
 34 81  1  0  0  0  0
 35 37  1  0  0  0  0
 35 82  1  0  0  0  0
 35 83  1  0  0  0  0
 36 84  1  0  0  0  0
 36 85  1  0  0  0  0
 37 86  1  0  0  0  0
 37 87  1  0  0  0  0
 38 88  1  0  0  0  0
 38 89  1  0  0  0  0
 38 90  1  0  0  0  0
 39 91  1  0  0  0  0
 39 92  1  0  0  0  0
M  CHG  2   1  -1   6   1
M  END
> <PUBCHEM_COMPOUND_CID>
441351

> <PUBCHEM_COMPOUND_CANONICALIZED>
1

> <PUBCHEM_CACTVS_COMPLEXITY>
898

> <PUBCHEM_CACTVS_HBOND_ACCEPTOR>
6

> <PUBCHEM_CACTVS_HBOND_DONOR>
1

> <PUBCHEM_CACTVS_ROTATABLE_BOND>
6

> <PUBCHEM_CACTVS_SUBSKEYS>
AAADcfB/OAAAEAAAAAAAAAAAAAAAAeIAAAA8YMEAAAAAAGDAAAAAHgAACAAADzzhgAYCCAMABgCIACDSCACAAAAAAAAIAAAIAAACEAIAgQAHQAAEAACQAAGQ0PIPgAAAAAAAAADQAAaAACAgAKAADAgAAA==

> <PUBCHEM_IUPAC_OPENEYE_NAME>
[(2S,3S,5S,8R,9S,10S,13S,14S,16S,17R)-16-(1-allylpyrrolidin-1-ium-1-yl)-3-hydroxy-10,13-dimethyl-2-morpholino-2,3,4,5,6,7,8,9,11,12,14,15,16,17-tetradecahydro-1H-cyclopenta[a]phenanthren-17-yl] acetate;bromide

> <PUBCHEM_IUPAC_CAS_NAME>
acetic acid [(2S,3S,5S,8R,9S,10S,13S,14S,16S,17R)-3-hydroxy-10,13-dimethyl-2-(4-morpholinyl)-16-(1-prop-2-enyl-1-pyrrolidin-1-iumyl)-2,3,4,5,6,7,8,9,11,12,14,15,16,17-tetradecahydro-1H-cyclopenta[a]phenanthren-17-yl] ester;bromide

> <PUBCHEM_IUPAC_NAME_MARKUP>
[(2<I>S</I>,3<I>S</I>,5<I>S</I>,8<I>R</I>,9<I>S</I>,10<I>S</I>,13<I>S</I>,14<I>S</I>,16<I>S</I>,17<I>R</I>)-3-hydroxy-10,13-dimethyl-2-morpholin-4-yl-16-(1-prop-2-enylpyrrolidin-1-ium-1-yl)-2,3,4,5,6,7,8,9,11,12,14,15,16,17-tetradecahydro-1<I>H</I>-cyclopenta[a]phenanthren-17-yl] acetate;bromide

> <PUBCHEM_IUPAC_NAME>
[(2S,3S,5S,8R,9S,10S,13S,14S,16S,17R)-3-hydroxy-10,13-dimethyl-2-morpholin-4-yl-16-(1-prop-2-enylpyrrolidin-1-ium-1-yl)-2,3,4,5,6,7,8,9,11,12,14,15,16,17-tetradecahydro-1H-cyclopenta[a]phenanthren-17-yl] acetate;bromide

> <PUBCHEM_IUPAC_SYSTEMATIC_NAME>
[(2S,3S,5S,8R,9S,10S,13S,14S,16S,17R)-10,13-dimethyl-2-morpholin-4-yl-3-oxidanyl-16-(1-prop-2-enylpyrrolidin-1-ium-1-yl)-2,3,4,5,6,7,8,9,11,12,14,15,16,17-tetradecahydro-1H-cyclopenta[a]phenanthren-17-yl] ethanoate;bromide

> <PUBCHEM_IUPAC_TRADITIONAL_NAME>
acetic acid [(2S,3S,5S,8R,9S,10S,13S,14S,16S,17R)-16-(1-allylpyrrolidin-1-ium-1-yl)-3-hydroxy-10,13-dimethyl-2-morpholino-2,3,4,5,6,7,8,9,11,12,14,15,16,17-tetradecahydro-1H-cyclopenta[a]phenanthren-17-yl] ester;bromide

> <PUBCHEM_IUPAC_INCHI>
InChI=1S/C32H53N2O4.BrH/c1-5-14-34(15-6-7-16-34)28-20-26-24-9-8-23-19-29(36)27(33-12-17-37-18-13-33)21-32(23,4)25(24)10-11-31(26,3)30(28)38-22(2)35;/h5,23-30,36H,1,6-21H2,2-4H3;1H/q+1;/p-1/t23-,24+,25-,26-,27-,28-,29-,30-,31-,32-;/m0./s1

> <PUBCHEM_IUPAC_INCHIKEY>
OYTJKRAYGYRUJK-FMCCZJBLSA-M

> <PUBCHEM_EXACT_MASS>
608.31887

> <PUBCHEM_MOLECULAR_FORMULA>
C32H53BrN2O4

> <PUBCHEM_MOLECULAR_WEIGHT>
609.7

> <PUBCHEM_OPENEYE_CAN_SMILES>
CC(=O)OC1C(CC2C1(CCC3C2CCC4C3(CC(C(C4)O)N5CCOCC5)C)C)[N+]6(CCCC6)CC=C.[Br-]

> <PUBCHEM_OPENEYE_ISO_SMILES>
CC(=O)O[C@H]1[C@H](C[C@@H]2[C@@]1(CC[C@H]3[C@H]2CC[C@@H]4[C@@]3(C[C@@H]([C@H](C4)O)N5CCOCC5)C)C)[N+]6(CCCC6)CC=C.[Br-]

> <PUBCHEM_CACTVS_TPSA>
59

> <PUBCHEM_MONOISOTOPIC_WEIGHT>
608.31887

> <PUBCHEM_TOTAL_CHARGE>
0

> <PUBCHEM_HEAVY_ATOM_COUNT>
39

> <PUBCHEM_ATOM_DEF_STEREO_COUNT>
10

> <PUBCHEM_ATOM_UDEF_STEREO_COUNT>
0

> <PUBCHEM_BOND_DEF_STEREO_COUNT>
0

> <PUBCHEM_BOND_UDEF_STEREO_COUNT>
0

> <PUBCHEM_ISOTOPIC_ATOM_COUNT>
0

> <PUBCHEM_COMPONENT_COUNT>
2

> <PUBCHEM_CACTVS_TAUTO_COUNT>
-1

> <PUBCHEM_COORDINATE_TYPE>
1
5
255

> <PUBCHEM_BONDANNOTATIONS>
10  41  5
11  42  6
12  25  5
13  43  6
17  49  6
14  2  5
28  3  6
24  7  5
8  40  6
9  22  5

$$$$
