SV_J26_0011
  -OEChem-07172407052D

 86 89  0     1  0  0  0  0  0999 V2000
    9.7942   -1.1900    0.0000 O   0  0  0  0  0  0  0  0  0  0  0  0
   10.6603    0.3100    0.0000 O   0  0  0  0  0  0  0  0  0  0  0  0
   14.9904   -1.1900    0.0000 O   0  0  0  0  0  0  0  0  0  0  0  0
   14.1244    0.3100    0.0000 O   0  0  0  0  0  0  0  0  0  0  0  0
   14.1244    3.3100    0.0000 O   0  5  0  0  0  0  0  0  0  0  0  0
   14.9904    1.8100    0.0000 O   0  0  0  0  0  0  0  0  0  0  0  0
    7.1962   -0.6900    0.0000 N   0  0  3  0  0  0  0  0  0  0  0  0
   12.3923   -2.6900    0.0000 N   0  0  0  0  0  0  0  0  0  0  0  0
   14.1244    2.3100    0.0000 N   0  3  0  0  0  0  0  0  0  0  0  0
    8.9282   -0.6900    0.0000 C   0  0  0  0  0  0  0  0  0  0  0  0
    8.0622   -0.1900    0.0000 C   0  0  0  0  0  0  0  0  0  0  0  0
    6.3301   -0.1900    0.0000 C   0  0  0  0  0  0  0  0  0  0  0  0
    5.4641   -0.6900    0.0000 C   0  0  0  0  0  0  0  0  0  0  0  0
    4.5981   -0.1900    0.0000 C   0  0  0  0  0  0  0  0  0  0  0  0
   12.3923   -0.6900    0.0000 C   0  0  3  0  0  0  0  0  0  0  0  0
    8.4282   -1.5560    0.0000 C   0  0  0  0  0  0  0  0  0  0  0  0
    9.4282    0.1760    0.0000 C   0  0  0  0  0  0  0  0  0  0  0  0
   11.5263   -1.1900    0.0000 C   0  0  0  0  0  0  0  0  0  0  0  0
    7.1962   -1.6900    0.0000 C   0  0  0  0  0  0  0  0  0  0  0  0
    3.7320   -0.6900    0.0000 C   0  0  0  0  0  0  0  0  0  0  0  0
    4.5981    0.8100    0.0000 C   0  0  0  0  0  0  0  0  0  0  0  0
   13.2583   -1.1900    0.0000 C   0  0  0  0  0  0  0  0  0  0  0  0
   10.6603   -0.6900    0.0000 C   0  0  0  0  0  0  0  0  0  0  0  0
   11.5263   -2.1900    0.0000 C   0  0  0  0  0  0  0  0  0  0  0  0
   12.3923    0.3100    0.0000 C   0  0  0  0  0  0  0  0  0  0  0  0
   13.2583   -2.1900    0.0000 C   0  0  0  0  0  0  0  0  0  0  0  0
    3.7320   -1.6900    0.0000 C   0  0  0  0  0  0  0  0  0  0  0  0
    5.4641    1.3100    0.0000 C   0  0  0  0  0  0  0  0  0  0  0  0
    2.8660   -0.1900    0.0000 C   0  0  0  0  0  0  0  0  0  0  0  0
    3.7320    1.3100    0.0000 C   0  0  0  0  0  0  0  0  0  0  0  0
   10.6603   -2.6900    0.0000 C   0  0  0  0  0  0  0  0  0  0  0  0
   13.2583    0.8100    0.0000 C   0  0  0  0  0  0  0  0  0  0  0  0
   11.5263    0.8100    0.0000 C   0  0  0  0  0  0  0  0  0  0  0  0
   14.1244   -0.6900    0.0000 C   0  0  0  0  0  0  0  0  0  0  0  0
   14.1244   -2.6900    0.0000 C   0  0  0  0  0  0  0  0  0  0  0  0
   13.2583    1.8100    0.0000 C   0  0  0  0  0  0  0  0  0  0  0  0
    2.8660   -2.1900    0.0000 C   0  0  0  0  0  0  0  0  0  0  0  0
    5.4641    2.3100    0.0000 C   0  0  0  0  0  0  0  0  0  0  0  0
    2.0000   -0.6900    0.0000 C   0  0  0  0  0  0  0  0  0  0  0  0
    3.7320    2.3100    0.0000 C   0  0  0  0  0  0  0  0  0  0  0  0
   11.5263    1.8100    0.0000 C   0  0  0  0  0  0  0  0  0  0  0  0
    2.0000   -1.6900    0.0000 C   0  0  0  0  0  0  0  0  0  0  0  0
    4.5981    2.8100    0.0000 C   0  0  0  0  0  0  0  0  0  0  0  0
   12.3923    2.3100    0.0000 C   0  0  0  0  0  0  0  0  0  0  0  0
   15.8564   -0.6900    0.0000 C   0  0  0  0  0  0  0  0  0  0  0  0
    8.4607    0.2849    0.0000 H   0  0  0  0  0  0  0  0  0  0  0  0
    7.6636    0.2849    0.0000 H   0  0  0  0  0  0  0  0  0  0  0  0
    6.7287    0.2849    0.0000 H   0  0  0  0  0  0  0  0  0  0  0  0
    5.9316    0.2849    0.0000 H   0  0  0  0  0  0  0  0  0  0  0  0
    5.0656   -1.1650    0.0000 H   0  0  0  0  0  0  0  0  0  0  0  0
    5.8626   -1.1650    0.0000 H   0  0  0  0  0  0  0  0  0  0  0  0
    4.5981   -0.8100    0.0000 H   0  0  0  0  0  0  0  0  0  0  0  0
   11.6562   -0.2650    0.0000 H   0  0  0  0  0  0  0  0  0  0  0  0
    7.8913   -1.2460    0.0000 H   0  0  0  0  0  0  0  0  0  0  0  0
    8.1182   -2.0930    0.0000 H   0  0  0  0  0  0  0  0  0  0  0  0
    8.9651   -1.8660    0.0000 H   0  0  0  0  0  0  0  0  0  0  0  0
    9.9651   -0.1340    0.0000 H   0  0  0  0  0  0  0  0  0  0  0  0
    9.7382    0.7130    0.0000 H   0  0  0  0  0  0  0  0  0  0  0  0
    8.8913    0.4860    0.0000 H   0  0  0  0  0  0  0  0  0  0  0  0
    6.5762   -1.6900    0.0000 H   0  0  0  0  0  0  0  0  0  0  0  0
    7.1962   -2.3100    0.0000 H   0  0  0  0  0  0  0  0  0  0  0  0
    7.8162   -1.6900    0.0000 H   0  0  0  0  0  0  0  0  0  0  0  0
   12.3923   -3.3100    0.0000 H   0  0  0  0  0  0  0  0  0  0  0  0
    4.2690   -2.0000    0.0000 H   0  0  0  0  0  0  0  0  0  0  0  0
    6.0010    1.0000    0.0000 H   0  0  0  0  0  0  0  0  0  0  0  0
    2.8660    0.4300    0.0000 H   0  0  0  0  0  0  0  0  0  0  0  0
    3.1951    1.0000    0.0000 H   0  0  0  0  0  0  0  0  0  0  0  0
   10.3503   -2.1531    0.0000 H   0  0  0  0  0  0  0  0  0  0  0  0
   10.1233   -3.0000    0.0000 H   0  0  0  0  0  0  0  0  0  0  0  0
   10.9703   -3.2269    0.0000 H   0  0  0  0  0  0  0  0  0  0  0  0
   13.7953    0.5000    0.0000 H   0  0  0  0  0  0  0  0  0  0  0  0
   10.9893    0.5000    0.0000 H   0  0  0  0  0  0  0  0  0  0  0  0
   13.8144   -3.2269    0.0000 H   0  0  0  0  0  0  0  0  0  0  0  0
   14.6613   -3.0000    0.0000 H   0  0  0  0  0  0  0  0  0  0  0  0
   14.4344   -2.1531    0.0000 H   0  0  0  0  0  0  0  0  0  0  0  0
    2.8660   -2.8100    0.0000 H   0  0  0  0  0  0  0  0  0  0  0  0
    6.0010    2.6200    0.0000 H   0  0  0  0  0  0  0  0  0  0  0  0
    1.4631   -0.3800    0.0000 H   0  0  0  0  0  0  0  0  0  0  0  0
    3.1951    2.6200    0.0000 H   0  0  0  0  0  0  0  0  0  0  0  0
   10.9893    2.1200    0.0000 H   0  0  0  0  0  0  0  0  0  0  0  0
    1.4631   -2.0000    0.0000 H   0  0  0  0  0  0  0  0  0  0  0  0
    4.5981    3.4300    0.0000 H   0  0  0  0  0  0  0  0  0  0  0  0
   12.3923    2.9300    0.0000 H   0  0  0  0  0  0  0  0  0  0  0  0
   16.1664   -1.2269    0.0000 H   0  0  0  0  0  0  0  0  0  0  0  0
   16.3933   -0.3800    0.0000 H   0  0  0  0  0  0  0  0  0  0  0  0
   15.5464   -0.1531    0.0000 H   0  0  0  0  0  0  0  0  0  0  0  0
  1 10  1  0  0  0  0
  1 23  1  0  0  0  0
  2 23  2  0  0  0  0
  3 34  1  0  0  0  0
  3 45  1  0  0  0  0
  4 34  2  0  0  0  0
  5  9  1  0  0  0  0
  6  9  2  0  0  0  0
  7 11  1  0  0  0  0
  7 12  1  0  0  0  0
  7 19  1  0  0  0  0
  8 24  1  0  0  0  0
  8 26  1  0  0  0  0
  8 63  1  0  0  0  0
  9 36  1  0  0  0  0
 10 11  1  0  0  0  0
 10 16  1  0  0  0  0
 10 17  1  0  0  0  0
 11 46  1  0  0  0  0
 11 47  1  0  0  0  0
 12 13  1  0  0  0  0
 12 48  1  0  0  0  0
 12 49  1  0  0  0  0
 13 14  1  0  0  0  0
 13 50  1  0  0  0  0
 13 51  1  0  0  0  0
 14 20  1  0  0  0  0
 14 21  1  0  0  0  0
 14 52  1  0  0  0  0
 15 18  1  0  0  0  0
 15 22  1  0  0  0  0
 15 25  1  0  0  0  0
 15 53  1  0  0  0  0
 16 54  1  0  0  0  0
 16 55  1  0  0  0  0
 16 56  1  0  0  0  0
 17 57  1  0  0  0  0
 17 58  1  0  0  0  0
 17 59  1  0  0  0  0
 18 23  1  0  0  0  0
 18 24  2  0  0  0  0
 19 60  1  0  0  0  0
 19 61  1  0  0  0  0
 19 62  1  0  0  0  0
 20 27  2  0  0  0  0
 20 29  1  0  0  0  0
 21 28  2  0  0  0  0
 21 30  1  0  0  0  0
 22 26  2  0  0  0  0
 22 34  1  0  0  0  0
 24 31  1  0  0  0  0
 25 32  2  0  0  0  0
 25 33  1  0  0  0  0
 26 35  1  0  0  0  0
 27 37  1  0  0  0  0
 27 64  1  0  0  0  0
 28 38  1  0  0  0  0
 28 65  1  0  0  0  0
 29 39  2  0  0  0  0
 29 66  1  0  0  0  0
 30 40  2  0  0  0  0
 30 67  1  0  0  0  0
 31 68  1  0  0  0  0
 31 69  1  0  0  0  0
 31 70  1  0  0  0  0
 32 36  1  0  0  0  0
 32 71  1  0  0  0  0
 33 41  2  0  0  0  0
 33 72  1  0  0  0  0
 35 73  1  0  0  0  0
 35 74  1  0  0  0  0
 35 75  1  0  0  0  0
 36 44  2  0  0  0  0
 37 42  2  0  0  0  0
 37 76  1  0  0  0  0
 38 43  2  0  0  0  0
 38 77  1  0  0  0  0
 39 42  1  0  0  0  0
 39 78  1  0  0  0  0
 40 43  1  0  0  0  0
 40 79  1  0  0  0  0
 41 44  1  0  0  0  0
 41 80  1  0  0  0  0
 42 81  1  0  0  0  0
 43 82  1  0  0  0  0
 44 83  1  0  0  0  0
 45 84  1  0  0  0  0
 45 85  1  0  0  0  0
 45 86  1  0  0  0  0
M  CHG  2   5  -1   9   1
M  END
> <PUBCHEM_COMPOUND_CID>
65866

> <PUBCHEM_COMPOUND_CANONICALIZED>
1

> <PUBCHEM_CACTVS_COMPLEXITY>
1090

> <PUBCHEM_CACTVS_HBOND_ACCEPTOR>
8

> <PUBCHEM_CACTVS_HBOND_DONOR>
1

> <PUBCHEM_CACTVS_ROTATABLE_BOND>
13

> <PUBCHEM_CACTVS_SUBSKEYS>
AAADcfB/OAAAAAAAAAAAAAAAAAAAAAAAAAAwYMEAAAAAAAABUAAAHgAUAAAADUzBmAYyyIPQRACJAiTSSwCCAAAgAgAoiAEIZMoKJDKAsZGHMABkkACY6UeY7uiOgAAAQAAAAAAAAACAAAAAAAAAAAAAAA==

> <PUBCHEM_IUPAC_OPENEYE_NAME>
O5-[2-[3,3-diphenylpropyl(methyl)amino]-1,1-dimethyl-ethyl] O3-methyl 2,6-dimethyl-4-(3-nitrophenyl)-1,4-dihydropyridine-3,5-dicarboxylate

> <PUBCHEM_IUPAC_CAS_NAME>
2,6-dimethyl-4-(3-nitrophenyl)-1,4-dihydropyridine-3,5-dicarboxylic acid O5-[1-[3,3-diphenylpropyl(methyl)amino]-2-methylpropan-2-yl] ester O3-methyl ester

> <PUBCHEM_IUPAC_NAME_MARKUP>
5-<I>O</I>-[1-[3,3-diphenylpropyl(methyl)amino]-2-methylpropan-2-yl] 3-<I>O</I>-methyl 2,6-dimethyl-4-(3-nitrophenyl)-1,4-dihydropyridine-3,5-dicarboxylate

> <PUBCHEM_IUPAC_NAME>
5-O-[1-[3,3-diphenylpropyl(methyl)amino]-2-methylpropan-2-yl] 3-O-methyl 2,6-dimethyl-4-(3-nitrophenyl)-1,4-dihydropyridine-3,5-dicarboxylate

> <PUBCHEM_IUPAC_SYSTEMATIC_NAME>
O5-[1-[3,3-diphenylpropyl(methyl)amino]-2-methyl-propan-2-yl] O3-methyl 2,6-dimethyl-4-(3-nitrophenyl)-1,4-dihydropyridine-3,5-dicarboxylate

> <PUBCHEM_IUPAC_TRADITIONAL_NAME>
2,6-dimethyl-4-(3-nitrophenyl)-1,4-dihydropyridine-3,5-dicarboxylic acid O5-[2-[3,3-diphenylpropyl(methyl)amino]-1,1-dimethyl-ethyl] ester O3-methyl ester

> <PUBCHEM_IUPAC_INCHI>
InChI=1S/C36H41N3O6/c1-24-31(34(40)44-6)33(28-18-13-19-29(22-28)39(42)43)32(25(2)37-24)35(41)45-36(3,4)23-38(5)21-20-30(26-14-9-7-10-15-26)27-16-11-8-12-17-27/h7-19,22,30,33,37H,20-21,23H2,1-6H3

> <PUBCHEM_IUPAC_INCHIKEY>
ZDXUKAKRHYTAKV-UHFFFAOYSA-N

> <PUBCHEM_XLOGP3>
6.9

> <PUBCHEM_EXACT_MASS>
611.29953604

> <PUBCHEM_MOLECULAR_FORMULA>
C36H41N3O6

> <PUBCHEM_MOLECULAR_WEIGHT>
611.7

> <PUBCHEM_OPENEYE_CAN_SMILES>
CC1=C(C(C(=C(N1)C)C(=O)OC(C)(C)CN(C)CCC(C2=CC=CC=C2)C3=CC=CC=C3)C4=CC(=CC=C4)[N+](=O)[O-])C(=O)OC

> <PUBCHEM_OPENEYE_ISO_SMILES>
CC1=C(C(C(=C(N1)C)C(=O)OC(C)(C)CN(C)CCC(C2=CC=CC=C2)C3=CC=CC=C3)C4=CC(=CC=C4)[N+](=O)[O-])C(=O)OC

> <PUBCHEM_CACTVS_TPSA>
114

> <PUBCHEM_MONOISOTOPIC_WEIGHT>
611.29953604

> <PUBCHEM_TOTAL_CHARGE>
0

> <PUBCHEM_HEAVY_ATOM_COUNT>
45

> <PUBCHEM_ATOM_DEF_STEREO_COUNT>
0

> <PUBCHEM_ATOM_UDEF_STEREO_COUNT>
1

> <PUBCHEM_BOND_DEF_STEREO_COUNT>
0

> <PUBCHEM_BOND_UDEF_STEREO_COUNT>
0

> <PUBCHEM_ISOTOPIC_ATOM_COUNT>
0

> <PUBCHEM_COMPONENT_COUNT>
1

> <PUBCHEM_CACTVS_TAUTO_COUNT>
5

> <PUBCHEM_COORDINATE_TYPE>
1
5
255

> <PUBCHEM_BONDANNOTATIONS>
15  53  3
20  27  8
20  29  8
21  28  8
21  30  8
25  32  8
25  33  8
27  37  8
28  38  8
29  39  8
30  40  8
32  36  8
33  41  8
36  44  8
37  42  8
38  43  8
39  42  8
40  43  8
41  44  8

$$$$
