SV_J7_0006
  -OEChem-07172407042D

 44 46  0     0  0  0  0  0  0999 V2000
    4.7784   -0.6099    0.0000 S   0  0  0  0  0  0  0  0  0  0  0  0
   10.6881    1.6132    0.0000 S   0  0  0  0  0  0  0  0  0  0  0  0
    6.4340    0.6634    0.0000 O   0  0  0  0  0  0  0  0  0  0  0  0
   11.2759    0.8042    0.0000 O   0  0  0  0  0  0  0  0  0  0  0  0
   10.1003    2.4222    0.0000 O   0  0  0  0  0  0  0  0  0  0  0  0
    4.7784   -2.2280    0.0000 N   0  0  0  0  0  0  0  0  0  0  0  0
    5.7295   -1.9190    0.0000 N   0  0  0  0  0  0  0  0  0  0  0  0
    7.4520   -0.7379    0.0000 N   0  0  0  0  0  0  0  0  0  0  0  0
   11.4971    2.2010    0.0000 N   0  0  0  0  0  0  0  0  0  0  0  0
    4.1906   -1.4190    0.0000 C   0  0  0  0  0  0  0  0  0  0  0  0
    3.7568   -0.5180    0.0000 C   0  0  0  0  0  0  0  0  0  0  0  0
    3.7568   -2.3199    0.0000 C   0  0  0  0  0  0  0  0  0  0  0  0
    2.7818   -0.2955    0.0000 C   0  0  0  0  0  0  0  0  0  0  0  0
    2.7818   -2.5424    0.0000 C   0  0  0  0  0  0  0  0  0  0  0  0
    2.0000   -0.9190    0.0000 C   0  0  0  0  0  0  0  0  0  0  0  0
    2.0000   -1.9190    0.0000 C   0  0  0  0  0  0  0  0  0  0  0  0
    5.7295   -0.9190    0.0000 C   0  0  0  0  0  0  0  0  0  0  0  0
    6.5385   -0.3312    0.0000 C   0  0  0  0  0  0  0  0  0  0  0  0
    8.2611   -0.1501    0.0000 C   0  0  0  0  0  0  0  0  0  0  0  0
    9.1746   -0.5569    0.0000 C   0  0  0  0  0  0  0  0  0  0  0  0
    8.1565    0.8444    0.0000 C   0  0  0  0  0  0  0  0  0  0  0  0
    9.8791    1.0254    0.0000 C   0  0  0  0  0  0  0  0  0  0  0  0
    9.9836    0.0309    0.0000 C   0  0  0  0  0  0  0  0  0  0  0  0
    8.9656    1.4322    0.0000 C   0  0  0  0  0  0  0  0  0  0  0  0
    4.3612   -0.3800    0.0000 H   0  0  0  0  0  0  0  0  0  0  0  0
    3.7568    0.1020    0.0000 H   0  0  0  0  0  0  0  0  0  0  0  0
    3.7568   -2.9399    0.0000 H   0  0  0  0  0  0  0  0  0  0  0  0
    4.3612   -2.4579    0.0000 H   0  0  0  0  0  0  0  0  0  0  0  0
    3.0508    0.2631    0.0000 H   0  0  0  0  0  0  0  0  0  0  0  0
    2.2971    0.0911    0.0000 H   0  0  0  0  0  0  0  0  0  0  0  0
    2.2971   -2.9290    0.0000 H   0  0  0  0  0  0  0  0  0  0  0  0
    3.0508   -3.1010    0.0000 H   0  0  0  0  0  0  0  0  0  0  0  0
    1.7310   -0.3604    0.0000 H   0  0  0  0  0  0  0  0  0  0  0  0
    1.3955   -1.0569    0.0000 H   0  0  0  0  0  0  0  0  0  0  0  0
    1.3955   -1.7810    0.0000 H   0  0  0  0  0  0  0  0  0  0  0  0
    1.7310   -2.4776    0.0000 H   0  0  0  0  0  0  0  0  0  0  0  0
    4.5868   -2.8176    0.0000 H   0  0  0  0  0  0  0  0  0  0  0  0
    7.5169   -1.3545    0.0000 H   0  0  0  0  0  0  0  0  0  0  0  0
    9.2394   -1.1735    0.0000 H   0  0  0  0  0  0  0  0  0  0  0  0
    7.5901    1.0966    0.0000 H   0  0  0  0  0  0  0  0  0  0  0  0
   10.5500   -0.2212    0.0000 H   0  0  0  0  0  0  0  0  0  0  0  0
    8.9008    2.0488    0.0000 H   0  0  0  0  0  0  0  0  0  0  0  0
   12.0635    1.9488    0.0000 H   0  0  0  0  0  0  0  0  0  0  0  0
   11.4323    2.8176    0.0000 H   0  0  0  0  0  0  0  0  0  0  0  0
  1 10  1  0  0  0  0
  1 17  1  0  0  0  0
  2  4  2  0  0  0  0
  2  5  2  0  0  0  0
  2  9  1  0  0  0  0
  2 22  1  0  0  0  0
  3 18  2  0  0  0  0
  6  7  1  0  0  0  0
  6 10  1  0  0  0  0
  6 37  1  0  0  0  0
  7 17  2  0  0  0  0
  8 18  1  0  0  0  0
  8 19  1  0  0  0  0
  8 38  1  0  0  0  0
  9 43  1  0  0  0  0
  9 44  1  0  0  0  0
 10 11  1  0  0  0  0
 10 12  1  0  0  0  0
 11 13  1  0  0  0  0
 11 25  1  0  0  0  0
 11 26  1  0  0  0  0
 12 14  1  0  0  0  0
 12 27  1  0  0  0  0
 12 28  1  0  0  0  0
 13 15  1  0  0  0  0
 13 29  1  0  0  0  0
 13 30  1  0  0  0  0
 14 16  1  0  0  0  0
 14 31  1  0  0  0  0
 14 32  1  0  0  0  0
 15 16  1  0  0  0  0
 15 33  1  0  0  0  0
 15 34  1  0  0  0  0
 16 35  1  0  0  0  0
 16 36  1  0  0  0  0
 17 18  1  0  0  0  0
 19 20  2  0  0  0  0
 19 21  1  0  0  0  0
 20 23  1  0  0  0  0
 20 39  1  0  0  0  0
 21 24  2  0  0  0  0
 21 40  1  0  0  0  0
 22 23  2  0  0  0  0
 22 24  1  0  0  0  0
 23 41  1  0  0  0  0
 24 42  1  0  0  0  0
M  END
> <PUBCHEM_COMPOUND_CID>
169409536

> <PUBCHEM_COMPOUND_CANONICALIZED>
1

> <PUBCHEM_CACTVS_COMPLEXITY>
599

> <PUBCHEM_CACTVS_HBOND_ACCEPTOR>
7

> <PUBCHEM_CACTVS_HBOND_DONOR>
3

> <PUBCHEM_CACTVS_ROTATABLE_BOND>
3

> <PUBCHEM_CACTVS_SUBSKEYS>
AAADceBzsABgAAAAAAAAAAAAAAAAAQAAAAAwAAAABgAAAAABAAAAHgQYQAAACAiB0AAwwYLiAAqoACVyUHDSABBhAhAYiBgAZIgIICLgkZGEIAhgnADoyAcQgAAAAAQAAAAAAAAACAAAAAAAAAAAAAAAAA==

> <PUBCHEM_IUPAC_OPENEYE_NAME>
N-(4-sulfamoylphenyl)-1-thia-3,4-diazaspiro[4.6]undec-2-ene-2-carboxamide

> <PUBCHEM_IUPAC_CAS_NAME>
N-(4-sulfamoylphenyl)-1-thia-3,4-diazaspiro[4.6]undec-2-ene-2-carboxamide

> <PUBCHEM_IUPAC_NAME_MARKUP>
<I>N</I>-(4-sulfamoylphenyl)-1-thia-3,4-diazaspiro[4.6]undec-2-ene-2-carboxamide

> <PUBCHEM_IUPAC_NAME>
N-(4-sulfamoylphenyl)-1-thia-3,4-diazaspiro[4.6]undec-2-ene-2-carboxamide

> <PUBCHEM_IUPAC_SYSTEMATIC_NAME>
N-(4-sulfamoylphenyl)-1-thia-3,4-diazaspiro[4.6]undec-2-ene-2-carboxamide

> <PUBCHEM_IUPAC_TRADITIONAL_NAME>
N-(4-sulfamoylphenyl)-1-thia-3,4-diazaspiro[4.6]undec-2-ene-2-carboxamide

> <PUBCHEM_IUPAC_INCHI>
InChI=1S/C15H20N4O3S2/c16-24(21,22)12-7-5-11(6-8-12)17-13(20)14-18-19-15(23-14)9-3-1-2-4-10-15/h5-8,19H,1-4,9-10H2,(H,17,20)(H2,16,21,22)

> <PUBCHEM_IUPAC_INCHIKEY>
FMJVMICAOOHOLD-UHFFFAOYSA-N

> <PUBCHEM_XLOGP3_AA>
2.9

> <PUBCHEM_EXACT_MASS>
368.09768286

> <PUBCHEM_MOLECULAR_FORMULA>
C15H20N4O3S2

> <PUBCHEM_MOLECULAR_WEIGHT>
368.5

> <PUBCHEM_OPENEYE_CAN_SMILES>
C1CCCC2(CC1)NN=C(S2)C(=O)NC3=CC=C(C=C3)S(=O)(=O)N

> <PUBCHEM_OPENEYE_ISO_SMILES>
C1CCCC2(CC1)NN=C(S2)C(=O)NC3=CC=C(C=C3)S(=O)(=O)N

> <PUBCHEM_CACTVS_TPSA>
147

> <PUBCHEM_MONOISOTOPIC_WEIGHT>
368.09768286

> <PUBCHEM_TOTAL_CHARGE>
0

> <PUBCHEM_HEAVY_ATOM_COUNT>
24

> <PUBCHEM_ATOM_DEF_STEREO_COUNT>
0

> <PUBCHEM_ATOM_UDEF_STEREO_COUNT>
0

> <PUBCHEM_BOND_DEF_STEREO_COUNT>
0

> <PUBCHEM_BOND_UDEF_STEREO_COUNT>
0

> <PUBCHEM_ISOTOPIC_ATOM_COUNT>
0

> <PUBCHEM_COMPONENT_COUNT>
1

> <PUBCHEM_CACTVS_TAUTO_COUNT>
-1

> <PUBCHEM_COORDINATE_TYPE>
1
5
255

> <PUBCHEM_BONDANNOTATIONS>
19  20  8
19  21  8
20  23  8
21  24  8
22  23  8
22  24  8

$$$$
