SV_J26_0015
  -OEChem-07172407062D

 83 87  0     1  0  0  0  0  0999 V2000
    8.9282    3.1340    0.0000 P   0  0  0  0  0  0  0  0  0  0  0  0
    9.9282    3.1340    0.0000 O   0  0  0  0  0  0  0  0  0  0  0  0
    8.4282    4.0000    0.0000 O   0  0  0  0  0  0  0  0  0  0  0  0
    8.0622    2.6340    0.0000 O   0  0  0  0  0  0  0  0  0  0  0  0
    7.1962   -0.8660    0.0000 O   0  0  0  0  0  0  0  0  0  0  0  0
    6.3301    0.6340    0.0000 O   0  0  0  0  0  0  0  0  0  0  0  0
    5.4641    5.1340    0.0000 O   0  5  0  0  0  0  0  0  0  0  0  0
    7.1962    5.1340    0.0000 O   0  0  0  0  0  0  0  0  0  0  0  0
    9.7942    0.6340    0.0000 N   0  0  0  0  0  0  0  0  0  0  0  0
    5.4641   -2.8660    0.0000 N   0  0  3  0  0  0  0  0  0  0  0  0
    6.3301    4.6340    0.0000 N   0  3  0  0  0  0  0  0  0  0  0  0
    9.9282    4.8660    0.0000 C   0  0  0  0  0  0  0  0  0  0  0  0
   10.4282    4.0000    0.0000 C   0  0  0  0  0  0  0  0  0  0  0  0
    8.9282    4.8660    0.0000 C   0  0  0  0  0  0  0  0  0  0  0  0
    8.9282    2.1340    0.0000 C   0  0  0  0  0  0  0  0  0  0  0  0
    8.0622    1.6340    0.0000 C   0  0  3  0  0  0  0  0  0  0  0  0
    9.9282    5.8660    0.0000 C   0  0  0  0  0  0  0  0  0  0  0  0
   10.7942    5.3660    0.0000 C   0  0  0  0  0  0  0  0  0  0  0  0
    9.7942    1.6340    0.0000 C   0  0  0  0  0  0  0  0  0  0  0  0
    8.0622    0.6340    0.0000 C   0  0  0  0  0  0  0  0  0  0  0  0
    7.1962    2.1340    0.0000 C   0  0  0  0  0  0  0  0  0  0  0  0
    8.9282    0.1340    0.0000 C   0  0  0  0  0  0  0  0  0  0  0  0
   10.6603    2.1340    0.0000 C   0  0  0  0  0  0  0  0  0  0  0  0
    7.1962    0.1340    0.0000 C   0  0  0  0  0  0  0  0  0  0  0  0
    7.1962    3.1340    0.0000 C   0  0  0  0  0  0  0  0  0  0  0  0
    6.3301    1.6340    0.0000 C   0  0  0  0  0  0  0  0  0  0  0  0
    8.9282   -0.8660    0.0000 C   0  0  0  0  0  0  0  0  0  0  0  0
    6.3301    3.6340    0.0000 C   0  0  0  0  0  0  0  0  0  0  0  0
    5.4641    2.1340    0.0000 C   0  0  0  0  0  0  0  0  0  0  0  0
    5.4641    3.1340    0.0000 C   0  0  0  0  0  0  0  0  0  0  0  0
    6.3301   -1.3660    0.0000 C   0  0  0  0  0  0  0  0  0  0  0  0
    6.3301   -2.3660    0.0000 C   0  0  0  0  0  0  0  0  0  0  0  0
    4.5981   -2.3660    0.0000 C   0  0  0  0  0  0  0  0  0  0  0  0
    5.4641   -3.8660    0.0000 C   0  0  0  0  0  0  0  0  0  0  0  0
    3.7320   -2.8660    0.0000 C   0  0  0  0  0  0  0  0  0  0  0  0
    6.3301   -4.3660    0.0000 C   0  0  0  0  0  0  0  0  0  0  0  0
    4.5981   -4.3660    0.0000 C   0  0  0  0  0  0  0  0  0  0  0  0
    3.7320   -3.8660    0.0000 C   0  0  0  0  0  0  0  0  0  0  0  0
    2.8660   -2.3660    0.0000 C   0  0  0  0  0  0  0  0  0  0  0  0
    6.3301   -5.3660    0.0000 C   0  0  0  0  0  0  0  0  0  0  0  0
    4.5981   -5.3660    0.0000 C   0  0  0  0  0  0  0  0  0  0  0  0
    5.4641   -5.8660    0.0000 C   0  0  0  0  0  0  0  0  0  0  0  0
    2.8660   -4.3660    0.0000 C   0  0  0  0  0  0  0  0  0  0  0  0
    2.0000   -2.8660    0.0000 C   0  0  0  0  0  0  0  0  0  0  0  0
    2.0000   -3.8660    0.0000 C   0  0  0  0  0  0  0  0  0  0  0  0
   10.9032    3.6015    0.0000 H   0  0  0  0  0  0  0  0  0  0  0  0
   10.9032    4.3985    0.0000 H   0  0  0  0  0  0  0  0  0  0  0  0
    9.0359    5.4766    0.0000 H   0  0  0  0  0  0  0  0  0  0  0  0
    8.3456    5.0781    0.0000 H   0  0  0  0  0  0  0  0  0  0  0  0
    8.0622    2.2540    0.0000 H   0  0  0  0  0  0  0  0  0  0  0  0
   10.5482    5.8660    0.0000 H   0  0  0  0  0  0  0  0  0  0  0  0
    9.9282    6.4860    0.0000 H   0  0  0  0  0  0  0  0  0  0  0  0
    9.3082    5.8660    0.0000 H   0  0  0  0  0  0  0  0  0  0  0  0
   11.1042    4.8291    0.0000 H   0  0  0  0  0  0  0  0  0  0  0  0
   11.3312    5.6760    0.0000 H   0  0  0  0  0  0  0  0  0  0  0  0
   10.4842    5.9030    0.0000 H   0  0  0  0  0  0  0  0  0  0  0  0
   10.3312    0.3240    0.0000 H   0  0  0  0  0  0  0  0  0  0  0  0
   10.9703    1.5970    0.0000 H   0  0  0  0  0  0  0  0  0  0  0  0
   11.1972    2.4440    0.0000 H   0  0  0  0  0  0  0  0  0  0  0  0
   10.3503    2.6709    0.0000 H   0  0  0  0  0  0  0  0  0  0  0  0
    7.7331    3.4440    0.0000 H   0  0  0  0  0  0  0  0  0  0  0  0
    6.3301    1.0140    0.0000 H   0  0  0  0  0  0  0  0  0  0  0  0
    8.3082   -0.8660    0.0000 H   0  0  0  0  0  0  0  0  0  0  0  0
    8.9282   -1.4860    0.0000 H   0  0  0  0  0  0  0  0  0  0  0  0
    9.5482   -0.8660    0.0000 H   0  0  0  0  0  0  0  0  0  0  0  0
    4.9272    1.8240    0.0000 H   0  0  0  0  0  0  0  0  0  0  0  0
    4.9272    3.4440    0.0000 H   0  0  0  0  0  0  0  0  0  0  0  0
    6.1181   -0.7834    0.0000 H   0  0  0  0  0  0  0  0  0  0  0  0
    5.7196   -1.4737    0.0000 H   0  0  0  0  0  0  0  0  0  0  0  0
    6.5422   -2.9486    0.0000 H   0  0  0  0  0  0  0  0  0  0  0  0
    6.9407   -2.2584    0.0000 H   0  0  0  0  0  0  0  0  0  0  0  0
    4.9966   -1.8911    0.0000 H   0  0  0  0  0  0  0  0  0  0  0  0
    4.1996   -1.8911    0.0000 H   0  0  0  0  0  0  0  0  0  0  0  0
    6.8671   -4.0560    0.0000 H   0  0  0  0  0  0  0  0  0  0  0  0
    4.0611   -4.0560    0.0000 H   0  0  0  0  0  0  0  0  0  0  0  0
    4.2690   -4.1760    0.0000 H   0  0  0  0  0  0  0  0  0  0  0  0
    2.8660   -1.7460    0.0000 H   0  0  0  0  0  0  0  0  0  0  0  0
    6.8671   -5.6760    0.0000 H   0  0  0  0  0  0  0  0  0  0  0  0
    4.0611   -5.6760    0.0000 H   0  0  0  0  0  0  0  0  0  0  0  0
    5.4641   -6.4860    0.0000 H   0  0  0  0  0  0  0  0  0  0  0  0
    2.8660   -4.9860    0.0000 H   0  0  0  0  0  0  0  0  0  0  0  0
    1.4631   -2.5560    0.0000 H   0  0  0  0  0  0  0  0  0  0  0  0
    1.4631   -4.1760    0.0000 H   0  0  0  0  0  0  0  0  0  0  0  0
  1  2  1  0  0  0  0
  1  3  1  0  0  0  0
  1  4  2  0  0  0  0
  1 15  1  0  0  0  0
  2 13  1  0  0  0  0
  3 14  1  0  0  0  0
  5 24  1  0  0  0  0
  5 31  1  0  0  0  0
  6 24  2  0  0  0  0
  7 11  1  0  0  0  0
  8 11  2  0  0  0  0
  9 19  1  0  0  0  0
  9 22  1  0  0  0  0
  9 57  1  0  0  0  0
 10 32  1  0  0  0  0
 10 33  1  0  0  0  0
 10 34  1  0  0  0  0
 11 28  1  0  0  0  0
 12 13  1  0  0  0  0
 12 14  1  0  0  0  0
 12 17  1  0  0  0  0
 12 18  1  0  0  0  0
 13 46  1  0  0  0  0
 13 47  1  0  0  0  0
 14 48  1  0  0  0  0
 14 49  1  0  0  0  0
 15 16  1  0  0  0  0
 15 19  2  0  0  0  0
 16 20  1  0  0  0  0
 16 21  1  0  0  0  0
 16 50  1  0  0  0  0
 17 51  1  0  0  0  0
 17 52  1  0  0  0  0
 17 53  1  0  0  0  0
 18 54  1  0  0  0  0
 18 55  1  0  0  0  0
 18 56  1  0  0  0  0
 19 23  1  0  0  0  0
 20 22  2  0  0  0  0
 20 24  1  0  0  0  0
 21 25  2  0  0  0  0
 21 26  1  0  0  0  0
 22 27  1  0  0  0  0
 23 58  1  0  0  0  0
 23 59  1  0  0  0  0
 23 60  1  0  0  0  0
 25 28  1  0  0  0  0
 25 61  1  0  0  0  0
 26 29  2  0  0  0  0
 26 62  1  0  0  0  0
 27 63  1  0  0  0  0
 27 64  1  0  0  0  0
 27 65  1  0  0  0  0
 28 30  2  0  0  0  0
 29 30  1  0  0  0  0
 29 66  1  0  0  0  0
 30 67  1  0  0  0  0
 31 32  1  0  0  0  0
 31 68  1  0  0  0  0
 31 69  1  0  0  0  0
 32 70  1  0  0  0  0
 32 71  1  0  0  0  0
 33 35  1  0  0  0  0
 33 72  1  0  0  0  0
 33 73  1  0  0  0  0
 34 36  2  0  0  0  0
 34 37  1  0  0  0  0
 35 38  2  0  0  0  0
 35 39  1  0  0  0  0
 36 40  1  0  0  0  0
 36 74  1  0  0  0  0
 37 41  2  0  0  0  0
 37 75  1  0  0  0  0
 38 43  1  0  0  0  0
 38 76  1  0  0  0  0
 39 44  2  0  0  0  0
 39 77  1  0  0  0  0
 40 42  2  0  0  0  0
 40 78  1  0  0  0  0
 41 42  1  0  0  0  0
 41 79  1  0  0  0  0
 42 80  1  0  0  0  0
 43 45  2  0  0  0  0
 43 81  1  0  0  0  0
 44 45  1  0  0  0  0
 44 82  1  0  0  0  0
 45 83  1  0  0  0  0
M  CHG  2   7  -1  11   1
M  END
> <PUBCHEM_COMPOUND_CID>
119171

> <PUBCHEM_COMPOUND_CANONICALIZED>
1

> <PUBCHEM_CACTVS_COMPLEXITY>
1170

> <PUBCHEM_CACTVS_HBOND_ACCEPTOR>
9

> <PUBCHEM_CACTVS_HBOND_DONOR>
1

> <PUBCHEM_CACTVS_ROTATABLE_BOND>
10

> <PUBCHEM_CACTVS_SUBSKEYS>
AAADcfB/OAIAAAAAAAAAAAAAAAAAAAAAAAA0YMECAAAAAAABUAAAHggUACAADwjhmAYyyIPQRRCJQiTSS4CCAAAhAgAoiAEIZMoKJDLAsZGHMAhlkADY6UeYyOCOgAAAQAAAAAAAAACAAAAAAAAAAAAAAA==

> <PUBCHEM_IUPAC_OPENEYE_NAME>
2-(N-benzylanilino)ethyl 5-(5,5-dimethyl-2-oxo-1,3,2lambda5-dioxaphosphinan-2-yl)-2,6-dimethyl-4-(3-nitrophenyl)-1,4-dihydropyridine-3-carboxylate

> <PUBCHEM_IUPAC_CAS_NAME>
5-(5,5-dimethyl-2-oxo-1,3,2lambda5-dioxaphosphorinan-2-yl)-2,6-dimethyl-4-(3-nitrophenyl)-1,4-dihydropyridine-3-carboxylic acid 2-(N-(phenylmethyl)anilino)ethyl ester

> <PUBCHEM_IUPAC_NAME_MARKUP>
2-(<I>N</I>-benzylanilino)ethyl 5-(5,5-dimethyl-2-oxo-1,3,2&lambda;<SUP>5</SUP>-dioxaphosphinan-2-yl)-2,6-dimethyl-4-(3-nitrophenyl)-1,4-dihydropyridine-3-carboxylate

> <PUBCHEM_IUPAC_NAME>
2-(N-benzylanilino)ethyl 5-(5,5-dimethyl-2-oxo-1,3,2lambda5-dioxaphosphinan-2-yl)-2,6-dimethyl-4-(3-nitrophenyl)-1,4-dihydropyridine-3-carboxylate

> <PUBCHEM_IUPAC_SYSTEMATIC_NAME>
2-[phenyl-(phenylmethyl)amino]ethyl 5-(5,5-dimethyl-2-oxidanylidene-1,3,2lambda5-dioxaphosphinan-2-yl)-2,6-dimethyl-4-(3-nitrophenyl)-1,4-dihydropyridine-3-carboxylate

> <PUBCHEM_IUPAC_TRADITIONAL_NAME>
5-(2-keto-5,5-dimethyl-1,3,2lambda5-dioxaphosphorinan-2-yl)-2,6-dimethyl-4-(3-nitrophenyl)-1,4-dihydropyridine-3-carboxylic acid 2-(N-benzylanilino)ethyl ester

> <PUBCHEM_IUPAC_INCHI>
InChI=1S/C34H38N3O7P/c1-24-30(33(38)42-19-18-36(28-15-9-6-10-16-28)21-26-12-7-5-8-13-26)31(27-14-11-17-29(20-27)37(39)40)32(25(2)35-24)45(41)43-22-34(3,4)23-44-45/h5-17,20,31,35H,18-19,21-23H2,1-4H3

> <PUBCHEM_IUPAC_INCHIKEY>
NSVFSAJIGAJDMR-UHFFFAOYSA-N

> <PUBCHEM_XLOGP3_AA>
5.9

> <PUBCHEM_EXACT_MASS>
631.24473756

> <PUBCHEM_MOLECULAR_FORMULA>
C34H38N3O7P

> <PUBCHEM_MOLECULAR_WEIGHT>
631.7

> <PUBCHEM_OPENEYE_CAN_SMILES>
CC1=C(C(C(=C(N1)C)P2(=O)OCC(CO2)(C)C)C3=CC(=CC=C3)[N+](=O)[O-])C(=O)OCCN(CC4=CC=CC=C4)C5=CC=CC=C5

> <PUBCHEM_OPENEYE_ISO_SMILES>
CC1=C(C(C(=C(N1)C)P2(=O)OCC(CO2)(C)C)C3=CC(=CC=C3)[N+](=O)[O-])C(=O)OCCN(CC4=CC=CC=C4)C5=CC=CC=C5

> <PUBCHEM_CACTVS_TPSA>
123

> <PUBCHEM_MONOISOTOPIC_WEIGHT>
631.24473756

> <PUBCHEM_TOTAL_CHARGE>
0

> <PUBCHEM_HEAVY_ATOM_COUNT>
45

> <PUBCHEM_ATOM_DEF_STEREO_COUNT>
0

> <PUBCHEM_ATOM_UDEF_STEREO_COUNT>
1

> <PUBCHEM_BOND_DEF_STEREO_COUNT>
0

> <PUBCHEM_BOND_UDEF_STEREO_COUNT>
0

> <PUBCHEM_ISOTOPIC_ATOM_COUNT>
0

> <PUBCHEM_COMPONENT_COUNT>
1

> <PUBCHEM_CACTVS_TAUTO_COUNT>
-1

> <PUBCHEM_COORDINATE_TYPE>
1
5
255

> <PUBCHEM_BONDANNOTATIONS>
16  21  3
21  25  8
21  26  8
25  28  8
26  29  8
28  30  8
29  30  8
34  36  8
34  37  8
35  38  8
35  39  8
36  40  8
37  41  8
38  43  8
39  44  8
40  42  8
41  42  8
43  45  8
44  45  8

$$$$
