59448236
     RDKit          2D

 32 34  0  0  1  0  0  0  0  0999 V2000
   10.6603    4.2500    0.0000 F   0  0  0  0  0  0  0  0  0  0  0  0
   11.6603    3.2500    0.0000 F   0  0  0  0  0  0  0  0  0  0  0  0
    9.6602    3.2500    0.0000 F   0  0  0  0  0  0  0  0  0  0  0  0
    7.1962    3.2500    0.0000 O   0  0  0  0  0  0  0  0  0  0  0  0
    5.4641   -0.7500    0.0000 N   0  0  0  0  0  0  0  0  0  0  0  0
    8.0622    1.7500    0.0000 N   0  0  0  0  0  0  0  0  0  0  0  0
    3.7320   -0.7500    0.0000 N   0  0  0  0  0  0  0  0  0  0  0  0
    4.5981   -2.2500    0.0000 N   0  0  0  0  0  0  0  0  0  0  0  0
    2.8660   -2.2500    0.0000 N   0  0  0  0  0  0  0  0  0  0  0  0
    3.7320   -3.7500    0.0000 N   0  0  0  0  0  0  0  0  0  0  0  0
   13.2583   -0.2500    0.0000 N   0  0  0  0  0  0  0  0  0  0  0  0
    6.3301    1.7500    0.0000 C   0  0  0  0  0  0  0  0  0  0  0  0
    5.4641    0.2500    0.0000 C   0  0  0  0  0  0  0  0  0  0  0  0
    6.3301    0.7500    0.0000 C   0  0  0  0  0  0  0  0  0  0  0  0
    5.4641    2.2500    0.0000 C   0  0  0  0  0  0  0  0  0  0  0  0
    4.5981    0.7500    0.0000 C   0  0  0  0  0  0  0  0  0  0  0  0
    4.5981    1.7500    0.0000 C   0  0  0  0  0  0  0  0  0  0  0  0
    7.1962    2.2500    0.0000 C   0  0  0  0  0  0  0  0  0  0  0  0
    4.5981   -1.2500    0.0000 C   0  0  0  0  0  0  0  0  0  0  0  0
    8.9282    2.2500    0.0000 C   0  0  0  0  0  0  0  0  0  0  0  0
    9.7942    1.7500    0.0000 C   0  0  0  0  0  0  0  0  0  0  0  0
   10.6603    2.2500    0.0000 C   0  0  0  0  0  0  0  0  0  0  0  0
    9.7942    0.7500    0.0000 C   0  0  0  0  0  0  0  0  0  0  0  0
    2.8660   -1.2500    0.0000 C   0  0  0  0  0  0  0  0  0  0  0  0
    3.7320   -2.7500    0.0000 C   0  0  0  0  0  0  0  0  0  0  0  0
   11.5263    1.7500    0.0000 C   0  0  0  0  0  0  0  0  0  0  0  0
   10.6603    3.2500    0.0000 C   0  0  0  0  0  0  0  0  0  0  0  0
   10.6603    0.2500    0.0000 C   0  0  0  0  0  0  0  0  0  0  0  0
   11.5263    0.7500    0.0000 C   0  0  0  0  0  0  0  0  0  0  0  0
    2.0000   -0.7500    0.0000 C   0  0  0  0  0  0  0  0  0  0  0  0
    2.8660   -4.2500    0.0000 C   0  0  0  0  0  0  0  0  0  0  0  0
   12.3923    0.2500    0.0000 C   0  0  0  0  0  0  0  0  0  0  0  0
  1 27  1  0
  2 27  1  0
  3 27  1  0
  4 18  2  0
 13  5  1  1
  5 19  1  0
  6 18  1  0
  6 20  1  0
  7 19  2  0
  7 24  1  0
  8 19  1  0
  8 25  2  0
  9 24  2  0
  9 25  1  0
 10 25  1  0
 10 31  1  0
 11 32  3  0
 12 14  1  0
 12 15  1  0
 12 18  1  1
 13 14  1  0
 13 16  1  0
 15 17  1  0
 16 17  1  0
 20 21  1  0
 21 22  2  0
 21 23  1  0
 22 26  1  0
 22 27  1  0
 23 28  2  0
 24 30  1  0
 26 29  2  0
 28 29  1  0
 29 32  1  0
M  END
>  <PUBCHEM_COMPOUND_CID>  (1) 
59448236

>  <PUBCHEM_COMPOUND_CANONICALIZED>  (1) 
1

>  <PUBCHEM_CACTVS_COMPLEXITY>  (1) 
682

>  <PUBCHEM_CACTVS_HBOND_ACCEPTOR>  (1) 
10

>  <PUBCHEM_CACTVS_HBOND_DONOR>  (1) 
3

>  <PUBCHEM_CACTVS_ROTATABLE_BOND>  (1) 
6

>  <PUBCHEM_CACTVS_SUBSKEYS>  (1) 
AAADceB7oYAAAAAAAAAAAAAAAAAAAAAAAAA8YIAAAAAAAAABwAAAHwAQAAAADSjBmxQzEIbIEAC4BiNyNACigAkgAKAJiIEYBIiIqDKAmRGEIAholgKIiA8ciMCOwAACAAAQAACAAASAACAAAAAAAAAAAA==

>  <PUBCHEM_IUPAC_OPENEYE_NAME>  (1) 
(1R,3S)-N-[[4-cyano-2-(trifluoromethyl)phenyl]methyl]-3-[[4-methyl-6-(methylamino)-1,3,5-triazin-2-yl]amino]cyclohexanecarboxamide

>  <PUBCHEM_IUPAC_CAS_NAME>  (1) 
(1R,3S)-N-[[4-cyano-2-(trifluoromethyl)phenyl]methyl]-3-[[4-methyl-6-(methylamino)-1,3,5-triazin-2-yl]amino]-1-cyclohexanecarboxamide

>  <PUBCHEM_IUPAC_NAME_MARKUP>  (1) 
(1<I>R</I>,3<I>S</I>)-<I>N</I>-[[4-cyano-2-(trifluoromethyl)phenyl]methyl]-3-[[4-methyl-6-(methylamino)-1,3,5-triazin-2-yl]amino]cyclohexane-1-carboxamide

>  <PUBCHEM_IUPAC_NAME>  (1) 
(1R,3S)-N-[[4-cyano-2-(trifluoromethyl)phenyl]methyl]-3-[[4-methyl-6-(methylamino)-1,3,5-triazin-2-yl]amino]cyclohexane-1-carboxamide

>  <PUBCHEM_IUPAC_SYSTEMATIC_NAME>  (1) 
(1R,3S)-N-[[4-cyano-2-(trifluoromethyl)phenyl]methyl]-3-[[4-methyl-6-(methylamino)-1,3,5-triazin-2-yl]amino]cyclohexane-1-carboxamide

>  <PUBCHEM_IUPAC_TRADITIONAL_NAME>  (1) 
(1R,3S)-N-[4-cyano-2-(trifluoromethyl)benzyl]-3-[[4-methyl-6-(methylamino)-s-triazin-2-yl]amino]cyclohexanecarboxamide

>  <PUBCHEM_IUPAC_INCHI>  (1) 
InChI=1S/C21H24F3N7O/c1-12-28-19(26-2)31-20(29-12)30-16-5-3-4-14(9-16)18(32)27-11-15-7-6-13(10-25)8-17(15)21(22,23)24/h6-8,14,16H,3-5,9,11H2,1-2H3,(H,27,32)(H2,26,28,29,30,31)/t14-,16+/m1/s1

>  <PUBCHEM_IUPAC_INCHIKEY>  (1) 
LQHDJQIMETZMPH-ZBFHGGJFSA-N

>  <PUBCHEM_XLOGP3_AA>  (1) 
3.7

>  <PUBCHEM_EXACT_MASS>  (1) 
447.19944290

>  <PUBCHEM_MOLECULAR_FORMULA>  (1) 
C21H24F3N7O

>  <PUBCHEM_MOLECULAR_WEIGHT>  (1) 
447.5

>  <PUBCHEM_OPENEYE_CAN_SMILES>  (1) 
CC1=NC(=NC(=N1)NC2CCCC(C2)C(=O)NCC3=C(C=C(C=C3)C#N)C(F)(F)F)NC

>  <PUBCHEM_OPENEYE_ISO_SMILES>  (1) 
CC1=NC(=NC(=N1)N[C@H]2CCC[C@H](C2)C(=O)NCC3=C(C=C(C=C3)C#N)C(F)(F)F)NC

>  <PUBCHEM_CACTVS_TPSA>  (1) 
116

>  <PUBCHEM_MONOISOTOPIC_WEIGHT>  (1) 
447.19944290

>  <PUBCHEM_TOTAL_CHARGE>  (1) 
0

>  <PUBCHEM_HEAVY_ATOM_COUNT>  (1) 
32

>  <PUBCHEM_ATOM_DEF_STEREO_COUNT>  (1) 
2

>  <PUBCHEM_ATOM_UDEF_STEREO_COUNT>  (1) 
0

>  <PUBCHEM_BOND_DEF_STEREO_COUNT>  (1) 
0

>  <PUBCHEM_BOND_UDEF_STEREO_COUNT>  (1) 
0

>  <PUBCHEM_ISOTOPIC_ATOM_COUNT>  (1) 
0

>  <PUBCHEM_COMPONENT_COUNT>  (1) 
1

>  <PUBCHEM_CACTVS_TAUTO_COUNT>  (1) 
-1

>  <PUBCHEM_COORDINATE_TYPE>  (1) 
1
5
255

>  <PUBCHEM_BONDANNOTATIONS>  (1) 
12  18  5
21  22  8
21  23  8
22  26  8
23  28  8
26  29  8
28  29  8
13  5  5
7  19  8
7  24  8
8  19  8
8  25  8
9  24  8
9  25  8

$$$$
