JBB20_0039
  -OEChem-04162410092D

 51 55  0     0  0  0  0  0  0999 V2000
    7.8512    3.0779    0.0000 O   0  0  0  0  0  0  0  0  0  0  0  0
    9.4975    2.5398    0.0000 O   0  0  0  0  0  0  0  0  0  0  0  0
    7.2764   -3.0779    0.0000 N   0  0  0  0  0  0  0  0  0  0  0  0
    5.4641   -3.2732    0.0000 N   0  0  0  0  0  0  0  0  0  0  0  0
    9.8547    0.8450    0.0000 C   0  0  0  0  0  0  0  0  0  0  0  0
   10.2630    1.7579    0.0000 C   0  0  0  0  0  0  0  0  0  0  0  0
   10.5967    0.1746    0.0000 C   0  0  0  0  0  0  0  0  0  0  0  0
   11.2573    1.6516    0.0000 C   0  0  0  0  0  0  0  0  0  0  0  0
   11.4636    0.6731    0.0000 C   0  0  0  0  0  0  0  0  0  0  0  0
    8.8762    0.6388    0.0000 C   0  0  0  0  0  0  0  0  0  0  0  0
    8.5655   -0.3117    0.0000 C   0  0  0  0  0  0  0  0  0  0  0  0
    8.2083    1.3831    0.0000 C   0  0  0  0  0  0  0  0  0  0  0  0
    7.5870   -0.5179    0.0000 C   0  0  0  0  0  0  0  0  0  0  0  0
    7.2298    1.1769    0.0000 C   0  0  0  0  0  0  0  0  0  0  0  0
    7.2764   -1.4685    0.0000 C   0  0  0  0  0  0  0  0  0  0  0  0
    6.9192    0.2264    0.0000 C   0  0  0  0  0  0  0  0  0  0  0  0
    8.5190    2.3336    0.0000 C   0  0  0  0  0  0  0  0  0  0  0  0
    6.3301   -1.7732    0.0000 C   0  0  0  0  0  0  0  0  0  0  0  0
    7.8600   -2.2732    0.0000 C   0  0  0  0  0  0  0  0  0  0  0  0
    6.3301   -2.7732    0.0000 C   0  0  0  0  0  0  0  0  0  0  0  0
    5.4641   -1.2732    0.0000 C   0  0  0  0  0  0  0  0  0  0  0  0
    4.5981   -1.7732    0.0000 C   0  0  0  0  0  0  0  0  0  0  0  0
    4.5981   -2.7732    0.0000 C   0  0  0  0  0  0  0  0  0  0  0  0
    3.7320   -1.2732    0.0000 C   0  0  0  0  0  0  0  0  0  0  0  0
    3.7320   -0.2732    0.0000 C   0  0  0  0  0  0  0  0  0  0  0  0
    2.8660   -1.7732    0.0000 C   0  0  0  0  0  0  0  0  0  0  0  0
    2.8660    0.2268    0.0000 C   0  0  0  0  0  0  0  0  0  0  0  0
    2.0000   -1.2732    0.0000 C   0  0  0  0  0  0  0  0  0  0  0  0
    2.0000   -0.2732    0.0000 C   0  0  0  0  0  0  0  0  0  0  0  0
    9.4653    1.3275    0.0000 H   0  0  0  0  0  0  0  0  0  0  0  0
   10.3930    2.3641    0.0000 H   0  0  0  0  0  0  0  0  0  0  0  0
    9.6737    1.9505    0.0000 H   0  0  0  0  0  0  0  0  0  0  0  0
   10.1352   -0.2395    0.0000 H   0  0  0  0  0  0  0  0  0  0  0  0
   10.9602   -0.3276    0.0000 H   0  0  0  0  0  0  0  0  0  0  0  0
   11.8741    1.7154    0.0000 H   0  0  0  0  0  0  0  0  0  0  0  0
   11.2584    2.2716    0.0000 H   0  0  0  0  0  0  0  0  0  0  0  0
   11.7148    0.1063    0.0000 H   0  0  0  0  0  0  0  0  0  0  0  0
   12.0535    0.8637    0.0000 H   0  0  0  0  0  0  0  0  0  0  0  0
    8.9796   -0.7732    0.0000 H   0  0  0  0  0  0  0  0  0  0  0  0
    6.8158    1.6384    0.0000 H   0  0  0  0  0  0  0  0  0  0  0  0
    6.3125    0.0985    0.0000 H   0  0  0  0  0  0  0  0  0  0  0  0
    8.4800   -2.2732    0.0000 H   0  0  0  0  0  0  0  0  0  0  0  0
    7.4690   -3.6672    0.0000 H   0  0  0  0  0  0  0  0  0  0  0  0
    5.4641   -0.6532    0.0000 H   0  0  0  0  0  0  0  0  0  0  0  0
    4.0611   -3.0832    0.0000 H   0  0  0  0  0  0  0  0  0  0  0  0
    8.0438    3.6672    0.0000 H   0  0  0  0  0  0  0  0  0  0  0  0
    4.2690    0.0368    0.0000 H   0  0  0  0  0  0  0  0  0  0  0  0
    2.8660   -2.3932    0.0000 H   0  0  0  0  0  0  0  0  0  0  0  0
    2.8660    0.8468    0.0000 H   0  0  0  0  0  0  0  0  0  0  0  0
    1.4631   -1.5832    0.0000 H   0  0  0  0  0  0  0  0  0  0  0  0
    1.4631    0.0368    0.0000 H   0  0  0  0  0  0  0  0  0  0  0  0
  1 17  1  0  0  0  0
  1 46  1  0  0  0  0
  2 17  2  0  0  0  0
  3 19  1  0  0  0  0
  3 20  1  0  0  0  0
  3 43  1  0  0  0  0
  4 20  1  0  0  0  0
  4 23  2  0  0  0  0
  5  6  1  0  0  0  0
  5  7  1  0  0  0  0
  5 10  1  0  0  0  0
  5 30  1  0  0  0  0
  6  8  1  0  0  0  0
  6 31  1  0  0  0  0
  6 32  1  0  0  0  0
  7  9  1  0  0  0  0
  7 33  1  0  0  0  0
  7 34  1  0  0  0  0
  8  9  1  0  0  0  0
  8 35  1  0  0  0  0
  8 36  1  0  0  0  0
  9 37  1  0  0  0  0
  9 38  1  0  0  0  0
 10 11  1  0  0  0  0
 10 12  2  0  0  0  0
 11 13  2  0  0  0  0
 11 39  1  0  0  0  0
 12 14  1  0  0  0  0
 12 17  1  0  0  0  0
 13 15  1  0  0  0  0
 13 16  1  0  0  0  0
 14 16  2  0  0  0  0
 14 40  1  0  0  0  0
 15 18  1  0  0  0  0
 15 19  2  0  0  0  0
 16 41  1  0  0  0  0
 18 20  2  0  0  0  0
 18 21  1  0  0  0  0
 19 42  1  0  0  0  0
 21 22  2  0  0  0  0
 21 44  1  0  0  0  0
 22 23  1  0  0  0  0
 22 24  1  0  0  0  0
 23 45  1  0  0  0  0
 24 25  2  0  0  0  0
 24 26  1  0  0  0  0
 25 27  1  0  0  0  0
 25 47  1  0  0  0  0
 26 28  2  0  0  0  0
 26 48  1  0  0  0  0
 27 29  2  0  0  0  0
 27 49  1  0  0  0  0
 28 29  1  0  0  0  0
 28 50  1  0  0  0  0
 29 51  1  0  0  0  0
M  END
> <PUBCHEM_COMPOUND_CID>
25022668

> <PUBCHEM_COMPOUND_CANONICALIZED>
1

> <PUBCHEM_CACTVS_COMPLEXITY>
569

> <PUBCHEM_CACTVS_HBOND_ACCEPTOR>
3

> <PUBCHEM_CACTVS_HBOND_DONOR>
2

> <PUBCHEM_CACTVS_ROTATABLE_BOND>
4

> <PUBCHEM_CACTVS_SUBSKEYS>
AAADceB7MAAAAAAAAAAAAAAAAAAAAeIAAAA8YIAAAAAAAFgB/AAAHgAQCAAADQDBmwQ9uN7JkgCoAjL3bACCgCm1AKAJ2aEoTNiILvLAnZGEcQhswAPI2aeYyPCOwAACAAAQAACAAAQAACAAAAAAAAAAAA==

> <PUBCHEM_IUPAC_OPENEYE_NAME>
2-cyclopentyl-4-(5-phenyl-1H-pyrrolo[2,3-b]pyridin-3-yl)benzoic acid

> <PUBCHEM_IUPAC_CAS_NAME>
2-cyclopentyl-4-(5-phenyl-1H-pyrrolo[2,3-b]pyridin-3-yl)benzoic acid

> <PUBCHEM_IUPAC_NAME_MARKUP>
2-cyclopentyl-4-(5-phenyl-1<I>H</I>-pyrrolo[2,3-b]pyridin-3-yl)benzoic acid

> <PUBCHEM_IUPAC_NAME>
2-cyclopentyl-4-(5-phenyl-1H-pyrrolo[2,3-b]pyridin-3-yl)benzoic acid

> <PUBCHEM_IUPAC_SYSTEMATIC_NAME>
2-cyclopentyl-4-(5-phenyl-1H-pyrrolo[2,3-b]pyridin-3-yl)benzoic acid

> <PUBCHEM_IUPAC_TRADITIONAL_NAME>
2-cyclopentyl-4-(5-phenyl-1H-pyrrolo[2,3-b]pyridin-3-yl)benzoic acid

> <PUBCHEM_IUPAC_INCHI>
InChI=1S/C25H22N2O2/c28-25(29)20-11-10-18(12-21(20)17-8-4-5-9-17)23-15-27-24-22(23)13-19(14-26-24)16-6-2-1-3-7-16/h1-3,6-7,10-15,17H,4-5,8-9H2,(H,26,27)(H,28,29)

> <PUBCHEM_IUPAC_INCHIKEY>
WVSBGSNVCDAMCF-UHFFFAOYSA-N

> <PUBCHEM_XLOGP3_AA>
6.1

> <PUBCHEM_EXACT_MASS>
382.168127949

> <PUBCHEM_MOLECULAR_FORMULA>
C25H22N2O2

> <PUBCHEM_MOLECULAR_WEIGHT>
382.5

> <PUBCHEM_OPENEYE_CAN_SMILES>
C1CCC(C1)C2=C(C=CC(=C2)C3=CNC4=C3C=C(C=N4)C5=CC=CC=C5)C(=O)O

> <PUBCHEM_OPENEYE_ISO_SMILES>
C1CCC(C1)C2=C(C=CC(=C2)C3=CNC4=C3C=C(C=N4)C5=CC=CC=C5)C(=O)O

> <PUBCHEM_CACTVS_TPSA>
66

> <PUBCHEM_MONOISOTOPIC_WEIGHT>
382.168127949

> <PUBCHEM_TOTAL_CHARGE>
0

> <PUBCHEM_HEAVY_ATOM_COUNT>
29

> <PUBCHEM_ATOM_DEF_STEREO_COUNT>
0

> <PUBCHEM_ATOM_UDEF_STEREO_COUNT>
0

> <PUBCHEM_BOND_DEF_STEREO_COUNT>
0

> <PUBCHEM_BOND_UDEF_STEREO_COUNT>
0

> <PUBCHEM_ISOTOPIC_ATOM_COUNT>
0

> <PUBCHEM_COMPONENT_COUNT>
1

> <PUBCHEM_CACTVS_TAUTO_COUNT>
-1

> <PUBCHEM_COORDINATE_TYPE>
1
5
255

> <PUBCHEM_BONDANNOTATIONS>
10  11  8
10  12  8
11  13  8
12  14  8
13  16  8
14  16  8
15  18  8
15  19  8
18  20  8
18  21  8
21  22  8
22  23  8
24  25  8
24  26  8
25  27  8
26  28  8
27  29  8
28  29  8
3  19  8
3  20  8
4  20  8
4  23  8

$$$$
