10952807
     RDKit          2D

 55 63  0  0  1  0  0  0  0  0999 V2000
    7.3197   -1.0576    0.0000 S   0  0  0  0  0  0  0  0  0  0  0  0
    5.6044    1.2466    0.0000 O   0  0  0  0  0  0  0  0  0  0  0  0
    2.6989   -1.4776    0.0000 O   0  0  0  0  0  0  0  0  0  0  0  0
    6.3193   -3.6416    0.0000 O   0  0  0  0  0  0  0  0  0  0  0  0
    8.3875   -2.0852    0.0000 O   0  0  0  0  0  0  0  0  0  0  0  0
    2.5637   -3.2186    0.0000 O   0  0  0  0  0  0  0  0  0  0  0  0
   10.2941   -2.8340    0.0000 O   0  0  0  0  0  0  0  0  0  0  0  0
    6.8291    2.2933    0.0000 O   0  0  0  0  0  0  0  0  0  0  0  0
    5.2567    3.5981    0.0000 O   0  0  0  0  0  0  0  0  0  0  0  0
    5.3674   -5.0887    0.0000 O   0  0  0  0  0  0  0  0  0  0  0  0
    6.8997    4.8212    0.0000 O   0  0  0  0  0  0  0  0  0  0  0  0
    5.7031    0.0544    0.0000 N   0  0  0  0  0  0  0  0  0  0  0  0
    7.2754    2.3094    0.0000 N   0  0  0  0  0  0  0  0  0  0  0  0
    8.3023    0.3847    0.0000 N   0  0  0  0  0  0  0  0  0  0  0  0
    4.7474    2.5917    0.0000 N   0  0  0  0  0  0  0  0  0  0  0  0
    6.5321   -0.5048    0.0000 C   0  0  0  0  0  0  0  0  0  0  0  0
    7.7532    0.3609    0.0000 C   0  0  0  0  0  0  0  0  0  0  0  0
    8.0120    1.3268    0.0000 C   0  0  0  0  0  0  0  0  0  0  0  0
    5.9787    1.0157    0.0000 C   0  0  0  0  0  0  0  0  0  0  0  0
    6.4755   -1.5448    0.0000 C   0  0  0  0  0  0  0  0  0  0  0  0
    4.7600   -0.3877    0.0000 C   0  0  0  0  0  0  0  0  0  0  0  0
    9.4436    1.1292    0.0000 C   0  0  0  0  0  0  0  0  0  0  0  0
    9.0248   -0.4337    0.0000 C   0  0  0  0  0  0  0  0  0  0  0  0
    5.5428   -2.0087    0.0000 C   0  0  0  0  0  0  0  0  0  0  0  0
    4.6793   -1.4262    0.0000 C   0  0  0  0  0  0  0  0  0  0  0  0
    9.8020    0.1956    0.0000 C   0  0  0  0  0  0  0  0  0  0  0  0
    4.8955    0.5776    0.0000 C   0  0  0  0  0  0  0  0  0  0  0  0
    7.2754    3.3094    0.0000 C   0  0  0  0  0  0  0  0  0  0  0  0
    9.1719   -1.4649    0.0000 C   0  0  0  0  0  0  0  0  0  0  0  0
    3.6969   -1.8867    0.0000 C   0  0  0  0  0  0  0  0  0  0  0  0
    5.4838   -3.0921    0.0000 C   0  0  0  0  0  0  0  0  0  0  0  0
    5.3631    1.8037    0.0000 C   0  0  0  0  0  0  0  0  0  0  0  0
   10.7801   -0.1627    0.0000 C   0  0  0  0  0  0  0  0  0  0  0  0
    7.6744   -0.1497    0.0000 C   0  0  0  0  0  0  0  0  0  0  0  0
    7.3841    0.7808    0.0000 C   0  0  0  0  0  0  0  0  0  0  0  0
    3.6129   -2.9685    0.0000 C   0  0  0  0  0  0  0  0  0  0  0  0
    4.5124   -3.5752    0.0000 C   0  0  0  0  0  0  0  0  0  0  0  0
   10.1414   -1.8457    0.0000 C   0  0  0  0  0  0  0  0  0  0  0  0
   10.9509   -1.1902    0.0000 C   0  0  0  0  0  0  0  0  0  0  0  0
    6.5760    1.3259    0.0000 C   0  0  0  0  0  0  0  0  0  0  0  0
    7.2680    1.7741    0.0000 C   0  0  0  0  0  0  0  0  0  0  0  0
    2.0000   -2.2991    0.0000 C   0  0  0  0  0  0  0  0  0  0  0  0
    4.4464   -4.5730    0.0000 C   0  0  0  0  0  0  0  0  0  0  0  0
    9.1044    0.9819    0.0000 C   0  0  0  0  0  0  0  0  0  0  0  0
    8.0701    2.3712    0.0000 C   0  0  0  0  0  0  0  0  0  0  0  0
   11.8859   -1.5450    0.0000 C   0  0  0  0  0  0  0  0  0  0  0  0
    8.9883    1.9751    0.0000 C   0  0  0  0  0  0  0  0  0  0  0  0
    6.3053    2.1719    0.0000 C   0  0  0  0  0  0  0  0  0  0  0  0
    6.2611   -4.6399    0.0000 C   0  0  0  0  0  0  0  0  0  0  0  0
    7.9652    3.4076    0.0000 C   0  0  0  0  0  0  0  0  0  0  0  0
    6.1764    3.2055    0.0000 C   0  0  0  0  0  0  0  0  0  0  0  0
   11.2263   -3.1960    0.0000 C   0  0  0  0  0  0  0  0  0  0  0  0
    7.0120    3.8275    0.0000 C   0  0  0  0  0  0  0  0  0  0  0  0
    7.0965   -5.1895    0.0000 C   0  0  0  0  0  0  0  0  0  0  0  0
    5.1368    4.5909    0.0000 C   0  0  0  0  0  0  0  0  0  0  0  0
 20  1  1  6
  1 34  1  0
  2 27  1  0
  2 40  1  0
  3 30  1  0
  3 42  1  0
  4 31  1  0
  4 49  1  0
  5 29  1  0
  6 36  1  0
  6 42  1  0
  7 38  1  0
  7 52  1  0
  8 40  2  0
  9 51  1  0
  9 55  1  0
 10 49  2  0
 11 53  1  0
 16 12  1  6
 12 19  1  0
 12 21  1  0
 13 17  1  0
 13 18  1  0
 13 28  1  0
 35 14  1  0
 14 44  1  0
 15 32  3  0
 16 17  1  0
 16 20  1  0
 17 23  1  6
 18 19  1  0
 18 22  1  1
 19 32  1  1
 20 24  1  0
 21 25  1  0
 21 27  1  6
 22 26  1  0
 23 26  2  0
 23 29  1  0
 24 25  1  0
 24 31  2  0
 25 30  2  0
 26 33  1  0
 29 38  2  0
 30 36  1  0
 31 37  1  0
 33 39  2  0
 35 34  1  6
 35 40  1  0
 35 41  1  0
 36 37  2  0
 37 43  1  0
 38 39  1  0
 39 46  1  0
 41 45  2  0
 41 48  1  0
 44 47  1  0
 45 47  1  0
 45 50  1  0
 48 51  2  0
 49 54  1  0
 50 53  2  0
 51 53  1  0
M  END
>  <PUBCHEM_COMPOUND_CID>  (1) 
10952807

>  <PUBCHEM_COMPOUND_CANONICALIZED>  (1) 
1

>  <PUBCHEM_CACTVS_COMPLEXITY>  (1) 
1550

>  <PUBCHEM_CACTVS_HBOND_ACCEPTOR>  (1) 
15

>  <PUBCHEM_CACTVS_HBOND_DONOR>  (1) 
3

>  <PUBCHEM_CACTVS_ROTATABLE_BOND>  (1) 
4

>  <PUBCHEM_CACTVS_SUBSKEYS>  (1) 
AAADcfB/vABAAAAAAAAAAAAAAAAAASAAAAA8ePFiAAAWAEixUAAAHgQQCAAADKzl2AeyDoPABgiYBiDSCACCCAAgIBAAiIGOjIgf5zKmtTu3eivn0BW/uA/4/P/O4QADCAAYQADCAAYQADCAAAAAAAAAAA==

>  <PUBCHEM_IUPAC_OPENEYE_NAME>  (1) 
[(1R,2R,3R,11S,12R,14R,26R)-12-cyano-5,6'-dihydroxy-6,7'-dimethoxy-7,21,30-trimethyl-27-oxo-spiro[17,19,28-trioxa-24-thia-13,30-diazaheptacyclo[12.9.6.13,11.02,13.04,9.015,23.016,20]triaconta-4(9),5,7,15,20,22-hexaene-26,1'-3,4-dihydro-2H-isoquinoline]-22-yl] acetate

>  <PUBCHEM_IUPAC_CAS_NAME>  (1) 
acetic acid [(1R,2R,3R,11S,12R,14R,26R)-12-cyano-5,6'-dihydroxy-6,7'-dimethoxy-7,21,30-trimethyl-27-oxo-22-spiro[17,19,28-trioxa-24-thia-13,30-diazaheptacyclo[12.9.6.13,11.02,13.04,9.015,23.016,20]triaconta-4(9),5,7,15,20,22-hexaene-26,1'-3,4-dihydro-2H-isoquinoline]yl] ester

>  <PUBCHEM_IUPAC_NAME_MARKUP>  (1) 
[(1<I>R</I>,2<I>R</I>,3<I>R</I>,11<I>S</I>,12<I>R</I>,14<I>R</I>,26<I>R</I>)-12-cyano-5,6&apos;-dihydroxy-6,7&apos;-dimethoxy-7,21,30-trimethyl-27-oxospiro[17,19,28-trioxa-24-thia-13,30-diazaheptacyclo[12.9.6.1<SUP>3,11</SUP>.0<SUP>2,13</SUP>.0<SUP>4,9</SUP>.0<SUP>15,23</SUP>.0<SUP>16,20</SUP>]triaconta-4(9),5,7,15,20,22-hexaene-26,1&apos;-3,4-dihydro-2<I>H</I>-isoquinoline]-22-yl] acetate

>  <PUBCHEM_IUPAC_NAME>  (1) 
[(1R,2R,3R,11S,12R,14R,26R)-12-cyano-5,6'-dihydroxy-6,7'-dimethoxy-7,21,30-trimethyl-27-oxospiro[17,19,28-trioxa-24-thia-13,30-diazaheptacyclo[12.9.6.13,11.02,13.04,9.015,23.016,20]triaconta-4(9),5,7,15,20,22-hexaene-26,1'-3,4-dihydro-2H-isoquinoline]-22-yl] acetate

>  <PUBCHEM_IUPAC_SYSTEMATIC_NAME>  (1) 
[(1R,2R,3R,11S,12R,14R,26R)-12-cyano-6,7'-dimethoxy-7,21,30-trimethyl-5,6'-bis(oxidanyl)-27-oxidanylidene-spiro[17,19,28-trioxa-24-thia-13,30-diazaheptacyclo[12.9.6.13,11.02,13.04,9.015,23.016,20]triaconta-4(9),5,7,15,20,22-hexaene-26,1'-3,4-dihydro-2H-isoquinoline]-22-yl] ethanoate

>  <PUBCHEM_IUPAC_TRADITIONAL_NAME>  (1) 
acetic acid [(1R,2R,3R,11S,12R,14R,26R)-12-cyano-5,6'-dihydroxy-27-keto-6,7'-dimethoxy-7,21,30-trimethyl-spiro[17,19,28-trioxa-24-thia-13,30-diazaheptacyclo[12.9.6.13,11.02,13.04,9.015,23.016,20]triaconta-4(9),5,7,15,20,22-hexaene-26,1'-3,4-dihydro-2H-isoquinoline]-22-yl] ester

>  <PUBCHEM_IUPAC_INCHI>  (1) 
InChI=1S/C40H42N4O10S/c1-17-9-21-10-23-24(13-41)44-25-14-51-39(48)40(22-12-27(49-5)26(46)11-20(22)7-8-42-40)15-55-38(32(44)31(43(23)4)28(21)33(47)34(17)50-6)30-29(25)37-36(52-16-53-37)18(2)35(30)54-19(3)45/h9,11-12,23-25,31-32,38,42,46-47H,7-8,10,14-16H2,1-6H3/t23-,24-,25-,31+,32+,38+,40+/m0/s1

>  <PUBCHEM_IUPAC_INCHIKEY>  (1) 
BGFXHQYUWCGGLL-QWIBJBKUSA-N

>  <PUBCHEM_XLOGP3_AA>  (1) 
3.7

>  <PUBCHEM_EXACT_MASS>  (1) 
770.26216472

>  <PUBCHEM_MOLECULAR_FORMULA>  (1) 
C40H42N4O10S

>  <PUBCHEM_MOLECULAR_WEIGHT>  (1) 
770.8

>  <PUBCHEM_OPENEYE_CAN_SMILES>  (1) 
CC1=CC2=C(C3C4C5C6=C(C(=C7C(=C6C(N4C(C(C2)N3C)C#N)COC(=O)C8(CS5)C9=CC(=C(C=C9CCN8)O)OC)OCO7)C)OC(=O)C)C(=C1OC)O

>  <PUBCHEM_OPENEYE_ISO_SMILES>  (1) 
CC1=CC2=C([C@@H]3[C@@H]4[C@H]5C6=C(C(=C7C(=C6[C@@H](N4[C@H]([C@H](C2)N3C)C#N)COC(=O)[C@@]8(CS5)C9=CC(=C(C=C9CCN8)O)OC)OCO7)C)OC(=O)C)C(=C1OC)O

>  <PUBCHEM_CACTVS_TPSA>  (1) 
198

>  <PUBCHEM_MONOISOTOPIC_WEIGHT>  (1) 
770.26216472

>  <PUBCHEM_TOTAL_CHARGE>  (1) 
0

>  <PUBCHEM_HEAVY_ATOM_COUNT>  (1) 
55

>  <PUBCHEM_ATOM_DEF_STEREO_COUNT>  (1) 
7

>  <PUBCHEM_ATOM_UDEF_STEREO_COUNT>  (1) 
0

>  <PUBCHEM_BOND_DEF_STEREO_COUNT>  (1) 
0

>  <PUBCHEM_BOND_UDEF_STEREO_COUNT>  (1) 
0

>  <PUBCHEM_ISOTOPIC_ATOM_COUNT>  (1) 
0

>  <PUBCHEM_COMPONENT_COUNT>  (1) 
1

>  <PUBCHEM_CACTVS_TAUTO_COUNT>  (1) 
153

>  <PUBCHEM_COORDINATE_TYPE>  (1) 
1
5
255

>  <PUBCHEM_BONDANNOTATIONS>  (1) 
35  14  5
16  56  5
17  57  5
18  58  6
19  32  5
20  60  5
21  61  5
23  26  8
23  29  8
24  25  8
24  31  8
25  30  8
26  33  8
29  38  8
30  36  8
31  37  8
33  39  8
36  37  8
38  39  8
41  45  8
41  48  8
45  50  8
48  51  8
50  53  8
51  53  8

$$$$
