44093
     RDKit          2D

 14 14  0  0  1  0  0  0  0  0999 V2000
    2.0000   -1.9594    0.0000 S   0  0  0  0  0  0  0  0  0  0  0  0
    4.5981   -0.4594    0.0000 O   0  0  0  0  0  0  0  0  0  0  0  0
    6.2353    1.9885    0.0000 O   0  0  0  0  0  0  0  0  0  0  0  0
    5.7000    0.3412    0.0000 O   0  0  0  0  0  0  0  0  0  0  0  0
    3.7320    1.0406    0.0000 N   0  0  0  0  0  0  0  0  0  0  0  0
    4.5411    1.6284    0.0000 C   0  0  0  0  0  0  0  0  0  0  0  0
    4.2320    2.5794    0.0000 C   0  0  0  0  0  0  0  0  0  0  0  0
    3.2320    2.5794    0.0000 C   0  0  0  0  0  0  0  0  0  0  0  0
    2.9230    1.6284    0.0000 C   0  0  0  0  0  0  0  0  0  0  0  0
    3.7320    0.0406    0.0000 C   0  0  0  0  0  0  0  0  0  0  0  0
    2.8660   -0.4594    0.0000 C   0  0  0  0  0  0  0  0  0  0  0  0
    5.4921    1.3194    0.0000 C   0  0  0  0  0  0  0  0  0  0  0  0
    2.8660   -1.4594    0.0000 C   0  0  0  0  0  0  0  0  0  0  0  0
    2.0000    0.0406    0.0000 C   0  0  0  0  0  0  0  0  0  0  0  0
  1 13  1  0
  2 10  2  0
  3 12  1  0
  4 12  2  0
  5  6  1  0
  5  9  1  0
  5 10  1  0
  6  7  1  0
  6 12  1  1
  7  8  1  0
  8  9  1  0
 10 11  1  0
 11 13  1  0
 11 14  1  1
M  END
>  <PUBCHEM_COMPOUND_CID>  (1) 
44093

>  <PUBCHEM_COMPOUND_CANONICALIZED>  (1) 
1

>  <PUBCHEM_CACTVS_COMPLEXITY>  (1) 
244

>  <PUBCHEM_CACTVS_HBOND_ACCEPTOR>  (1) 
4

>  <PUBCHEM_CACTVS_HBOND_DONOR>  (1) 
2

>  <PUBCHEM_CACTVS_ROTATABLE_BOND>  (1) 
3

>  <PUBCHEM_CACTVS_SUBSKEYS>  (1) 
AAADccByMABAAAAAAAAAAAAAAAAAAWAAAAAAAAAAAAAAAAAAAAAAHgQACAAADSjFwASCCAMAAgQIAAGQGAAAAAAAAAAAAAGIAAACABIAgCAEQAAEBgCQAACYEQIAAAAAAAAAAAAAAAAAAAAAAAAAAAAAAA==

>  <PUBCHEM_IUPAC_OPENEYE_NAME>  (1) 
(2S)-1-[(2S)-2-methyl-3-sulfanyl-propanoyl]pyrrolidine-2-carboxylic acid

>  <PUBCHEM_IUPAC_CAS_NAME>  (1) 
(2S)-1-[(2S)-3-mercapto-2-methyl-1-oxopropyl]-2-pyrrolidinecarboxylic acid

>  <PUBCHEM_IUPAC_NAME_MARKUP>  (1) 
(2<I>S</I>)-1-[(2<I>S</I>)-2-methyl-3-sulfanylpropanoyl]pyrrolidine-2-carboxylic acid

>  <PUBCHEM_IUPAC_NAME>  (1) 
(2S)-1-[(2S)-2-methyl-3-sulfanylpropanoyl]pyrrolidine-2-carboxylic acid

>  <PUBCHEM_IUPAC_SYSTEMATIC_NAME>  (1) 
(2S)-1-[(2S)-2-methyl-3-sulfanyl-propanoyl]pyrrolidine-2-carboxylic acid

>  <PUBCHEM_IUPAC_TRADITIONAL_NAME>  (1) 
(2S)-1-[(2S)-3-mercapto-2-methyl-propanoyl]proline

>  <PUBCHEM_IUPAC_INCHI>  (1) 
InChI=1S/C9H15NO3S/c1-6(5-14)8(11)10-4-2-3-7(10)9(12)13/h6-7,14H,2-5H2,1H3,(H,12,13)/t6-,7+/m1/s1

>  <PUBCHEM_IUPAC_INCHIKEY>  (1) 
FAKRSMQSSFJEIM-RQJHMYQMSA-N

>  <PUBCHEM_XLOGP3>  (1) 
0.3

>  <PUBCHEM_EXACT_MASS>  (1) 
217.07726451

>  <PUBCHEM_MOLECULAR_FORMULA>  (1) 
C9H15NO3S

>  <PUBCHEM_MOLECULAR_WEIGHT>  (1) 
217.29

>  <PUBCHEM_OPENEYE_CAN_SMILES>  (1) 
CC(CS)C(=O)N1CCCC1C(=O)O

>  <PUBCHEM_OPENEYE_ISO_SMILES>  (1) 
C[C@H](CS)C(=O)N1CCC[C@H]1C(=O)O

>  <PUBCHEM_CACTVS_TPSA>  (1) 
58.6

>  <PUBCHEM_MONOISOTOPIC_WEIGHT>  (1) 
217.07726451

>  <PUBCHEM_TOTAL_CHARGE>  (1) 
0

>  <PUBCHEM_HEAVY_ATOM_COUNT>  (1) 
14

>  <PUBCHEM_ATOM_DEF_STEREO_COUNT>  (1) 
2

>  <PUBCHEM_ATOM_UDEF_STEREO_COUNT>  (1) 
0

>  <PUBCHEM_BOND_DEF_STEREO_COUNT>  (1) 
0

>  <PUBCHEM_BOND_UDEF_STEREO_COUNT>  (1) 
0

>  <PUBCHEM_ISOTOPIC_ATOM_COUNT>  (1) 
0

>  <PUBCHEM_COMPONENT_COUNT>  (1) 
1

>  <PUBCHEM_CACTVS_TAUTO_COUNT>  (1) 
1

>  <PUBCHEM_COORDINATE_TYPE>  (1) 
1
5
255

>  <PUBCHEM_BONDANNOTATIONS>  (1) 
11  14  5
6  12  5

$$$$
