JBB20_0031
  -OEChem-04162410092D

 62 65  0     0  0  0  0  0  0999 V2000
   11.5942    2.9554    0.0000 S   0  0  0  0  0  0  0  0  0  0  0  0
    4.5981    2.9279    0.0000 O   0  0  0  0  0  0  0  0  0  0  0  0
    2.8660   -1.0721    0.0000 O   0  0  0  0  0  0  0  0  0  0  0  0
    4.5981   -4.0721    0.0000 O   0  0  0  0  0  0  0  0  0  0  0  0
   12.0909    3.8234    0.0000 O   0  0  0  0  0  0  0  0  0  0  0  0
   11.0976    2.0875    0.0000 O   0  0  0  0  0  0  0  0  0  0  0  0
    4.5981   -1.0721    0.0000 N   0  0  0  0  0  0  0  0  0  0  0  0
    3.7320   -2.5721    0.0000 N   0  0  0  0  0  0  0  0  0  0  0  0
   10.7263    3.4521    0.0000 N   0  0  0  0  0  0  0  0  0  0  0  0
    2.8660    1.9279    0.0000 C   0  0  0  0  0  0  0  0  0  0  0  0
    3.7320    1.4279    0.0000 C   0  0  0  0  0  0  0  0  0  0  0  0
    4.5981    1.9279    0.0000 C   0  0  0  0  0  0  0  0  0  0  0  0
    2.0000    2.4279    0.0000 C   0  0  0  0  0  0  0  0  0  0  0  0
    2.3660    1.0619    0.0000 C   0  0  0  0  0  0  0  0  0  0  0  0
    3.3660    2.7940    0.0000 C   0  0  0  0  0  0  0  0  0  0  0  0
    5.4641    1.4279    0.0000 C   0  0  0  0  0  0  0  0  0  0  0  0
    3.7320    0.4279    0.0000 C   0  0  0  0  0  0  0  0  0  0  0  0
    4.5981   -0.0721    0.0000 C   0  0  0  0  0  0  0  0  0  0  0  0
    5.4641    0.4279    0.0000 C   0  0  0  0  0  0  0  0  0  0  0  0
    6.3301    1.9279    0.0000 C   0  0  0  0  0  0  0  0  0  0  0  0
    7.1962    1.4279    0.0000 C   0  0  0  0  0  0  0  0  0  0  0  0
    8.0622    1.9279    0.0000 C   0  0  0  0  0  0  0  0  0  0  0  0
    6.3301    2.9279    0.0000 C   0  0  0  0  0  0  0  0  0  0  0  0
    8.0622    2.9279    0.0000 C   0  0  0  0  0  0  0  0  0  0  0  0
    7.1962    3.4279    0.0000 C   0  0  0  0  0  0  0  0  0  0  0  0
    3.7320   -1.5721    0.0000 C   0  0  0  0  0  0  0  0  0  0  0  0
    5.4641   -1.5721    0.0000 C   0  0  0  0  0  0  0  0  0  0  0  0
    8.9561    1.3933    0.0000 C   0  0  0  0  0  0  0  0  0  0  0  0
    8.9561    3.4626    0.0000 C   0  0  0  0  0  0  0  0  0  0  0  0
    9.8622    2.9487    0.0000 C   0  0  0  0  0  0  0  0  0  0  0  0
    5.4641    3.4279    0.0000 C   0  0  0  0  0  0  0  0  0  0  0  0
    9.8622    1.9071    0.0000 C   0  0  0  0  0  0  0  0  0  0  0  0
    5.4641   -2.5721    0.0000 C   0  0  0  0  0  0  0  0  0  0  0  0
    4.5981   -3.0721    0.0000 C   0  0  0  0  0  0  0  0  0  0  0  0
   12.4622    2.4588    0.0000 C   0  0  0  0  0  0  0  0  0  0  0  0
    2.3100    2.9649    0.0000 H   0  0  0  0  0  0  0  0  0  0  0  0
    1.4631    2.7379    0.0000 H   0  0  0  0  0  0  0  0  0  0  0  0
    1.6900    1.8910    0.0000 H   0  0  0  0  0  0  0  0  0  0  0  0
    1.8291    1.3719    0.0000 H   0  0  0  0  0  0  0  0  0  0  0  0
    2.0560    0.5250    0.0000 H   0  0  0  0  0  0  0  0  0  0  0  0
    2.9030    0.7519    0.0000 H   0  0  0  0  0  0  0  0  0  0  0  0
    3.9030    2.4840    0.0000 H   0  0  0  0  0  0  0  0  0  0  0  0
    3.6760    3.3309    0.0000 H   0  0  0  0  0  0  0  0  0  0  0  0
    2.8291    3.1040    0.0000 H   0  0  0  0  0  0  0  0  0  0  0  0
    3.1951    0.1179    0.0000 H   0  0  0  0  0  0  0  0  0  0  0  0
    6.0010    0.1179    0.0000 H   0  0  0  0  0  0  0  0  0  0  0  0
    7.1962    0.8079    0.0000 H   0  0  0  0  0  0  0  0  0  0  0  0
    5.7932    3.2379    0.0000 H   0  0  0  0  0  0  0  0  0  0  0  0
    7.1962    4.0479    0.0000 H   0  0  0  0  0  0  0  0  0  0  0  0
    8.9490    4.0826    0.0000 H   0  0  0  0  0  0  0  0  0  0  0  0
    8.9490    0.7733    0.0000 H   0  0  0  0  0  0  0  0  0  0  0  0
    6.0010   -1.2621    0.0000 H   0  0  0  0  0  0  0  0  0  0  0  0
    5.7741    2.8910    0.0000 H   0  0  0  0  0  0  0  0  0  0  0  0
    6.0010    3.7379    0.0000 H   0  0  0  0  0  0  0  0  0  0  0  0
    5.1541    3.9649    0.0000 H   0  0  0  0  0  0  0  0  0  0  0  0
   10.3979    1.5950    0.0000 H   0  0  0  0  0  0  0  0  0  0  0  0
    3.1951   -2.8821    0.0000 H   0  0  0  0  0  0  0  0  0  0  0  0
    6.0010   -2.8821    0.0000 H   0  0  0  0  0  0  0  0  0  0  0  0
   10.7239    4.0721    0.0000 H   0  0  0  0  0  0  0  0  0  0  0  0
   12.1542    1.9206    0.0000 H   0  0  0  0  0  0  0  0  0  0  0  0
   13.0003    2.1508    0.0000 H   0  0  0  0  0  0  0  0  0  0  0  0
   12.7701    2.9969    0.0000 H   0  0  0  0  0  0  0  0  0  0  0  0
  1  5  2  0  0  0  0
  1  6  2  0  0  0  0
  1  9  1  0  0  0  0
  1 35  1  0  0  0  0
  2 12  1  0  0  0  0
  2 31  1  0  0  0  0
  3 26  2  0  0  0  0
  4 34  2  0  0  0  0
  7 18  1  0  0  0  0
  7 26  1  0  0  0  0
  7 27  1  0  0  0  0
  8 26  1  0  0  0  0
  8 34  1  0  0  0  0
  8 57  1  0  0  0  0
  9 30  1  0  0  0  0
  9 59  1  0  0  0  0
 10 11  1  0  0  0  0
 10 13  1  0  0  0  0
 10 14  1  0  0  0  0
 10 15  1  0  0  0  0
 11 12  1  0  0  0  0
 11 17  2  0  0  0  0
 12 16  2  0  0  0  0
 13 36  1  0  0  0  0
 13 37  1  0  0  0  0
 13 38  1  0  0  0  0
 14 39  1  0  0  0  0
 14 40  1  0  0  0  0
 14 41  1  0  0  0  0
 15 42  1  0  0  0  0
 15 43  1  0  0  0  0
 15 44  1  0  0  0  0
 16 19  1  0  0  0  0
 16 20  1  0  0  0  0
 17 18  1  0  0  0  0
 17 45  1  0  0  0  0
 18 19  2  0  0  0  0
 19 46  1  0  0  0  0
 20 21  2  0  0  0  0
 20 23  1  0  0  0  0
 21 22  1  0  0  0  0
 21 47  1  0  0  0  0
 22 24  2  0  0  0  0
 22 28  1  0  0  0  0
 23 25  2  0  0  0  0
 23 48  1  0  0  0  0
 24 25  1  0  0  0  0
 24 29  1  0  0  0  0
 25 49  1  0  0  0  0
 27 33  2  0  0  0  0
 27 52  1  0  0  0  0
 28 32  2  0  0  0  0
 28 51  1  0  0  0  0
 29 30  2  0  0  0  0
 29 50  1  0  0  0  0
 30 32  1  0  0  0  0
 31 53  1  0  0  0  0
 31 54  1  0  0  0  0
 31 55  1  0  0  0  0
 32 56  1  0  0  0  0
 33 34  1  0  0  0  0
 33 58  1  0  0  0  0
 35 60  1  0  0  0  0
 35 61  1  0  0  0  0
 35 62  1  0  0  0  0
M  END
> <PUBCHEM_COMPOUND_CID>
56640146

> <PUBCHEM_COMPOUND_CANONICALIZED>
1

> <PUBCHEM_CACTVS_COMPLEXITY>
938

> <PUBCHEM_CACTVS_HBOND_ACCEPTOR>
6

> <PUBCHEM_CACTVS_HBOND_DONOR>
2

> <PUBCHEM_CACTVS_ROTATABLE_BOND>
6

> <PUBCHEM_CACTVS_SUBSKEYS>
AAADceB7OABAAAAAAAAAAAAAAAAAAAAAAAAwYMEAAAAAAADBVAAAHgQQQAAADgzBmAazxsPABAKIAiVWUHCCCAAhIgAIiAAMbMiMJiLEsZuEMChs1zNI6OewwPAPyEACQAAYAACQgASAADAAAAAAAAAAAA==

> <PUBCHEM_IUPAC_OPENEYE_NAME>
N-[6-[3-tert-butyl-5-(2,4-dioxopyrimidin-1-yl)-2-methoxy-phenyl]-2-naphthyl]methanesulfonamide

> <PUBCHEM_IUPAC_CAS_NAME>
N-[6-[3-tert-butyl-5-(2,4-dioxo-1-pyrimidinyl)-2-methoxyphenyl]-2-naphthalenyl]methanesulfonamide

> <PUBCHEM_IUPAC_NAME_MARKUP>
<I>N</I>-[6-[3-<I>tert</I>-butyl-5-(2,4-dioxopyrimidin-1-yl)-2-methoxyphenyl]naphthalen-2-yl]methanesulfonamide

> <PUBCHEM_IUPAC_NAME>
N-[6-[3-tert-butyl-5-(2,4-dioxopyrimidin-1-yl)-2-methoxyphenyl]naphthalen-2-yl]methanesulfonamide

> <PUBCHEM_IUPAC_SYSTEMATIC_NAME>
N-[6-[5-[2,4-bis(oxidanylidene)pyrimidin-1-yl]-3-tert-butyl-2-methoxy-phenyl]naphthalen-2-yl]methanesulfonamide

> <PUBCHEM_IUPAC_TRADITIONAL_NAME>
N-[6-[3-tert-butyl-5-(2,4-diketopyrimidin-1-yl)-2-methoxy-phenyl]-2-naphthyl]methanesulfonamide

> <PUBCHEM_IUPAC_INCHI>
InChI=1S/C26H27N3O5S/c1-26(2,3)22-15-20(29-11-10-23(30)27-25(29)31)14-21(24(22)34-4)18-7-6-17-13-19(28-35(5,32)33)9-8-16(17)12-18/h6-15,28H,1-5H3,(H,27,30,31)

> <PUBCHEM_IUPAC_INCHIKEY>
NBRBXGKOEOGLOI-UHFFFAOYSA-N

> <PUBCHEM_XLOGP3_AA>
4.3

> <PUBCHEM_EXACT_MASS>
493.16714214

> <PUBCHEM_MOLECULAR_FORMULA>
C26H27N3O5S

> <PUBCHEM_MOLECULAR_WEIGHT>
493.6

> <PUBCHEM_OPENEYE_CAN_SMILES>
CC(C)(C)C1=CC(=CC(=C1OC)C2=CC3=C(C=C2)C=C(C=C3)NS(=O)(=O)C)N4C=CC(=O)NC4=O

> <PUBCHEM_OPENEYE_ISO_SMILES>
CC(C)(C)C1=CC(=CC(=C1OC)C2=CC3=C(C=C2)C=C(C=C3)NS(=O)(=O)C)N4C=CC(=O)NC4=O

> <PUBCHEM_CACTVS_TPSA>
113

> <PUBCHEM_MONOISOTOPIC_WEIGHT>
493.16714214

> <PUBCHEM_TOTAL_CHARGE>
0

> <PUBCHEM_HEAVY_ATOM_COUNT>
35

> <PUBCHEM_ATOM_DEF_STEREO_COUNT>
0

> <PUBCHEM_ATOM_UDEF_STEREO_COUNT>
0

> <PUBCHEM_BOND_DEF_STEREO_COUNT>
0

> <PUBCHEM_BOND_UDEF_STEREO_COUNT>
0

> <PUBCHEM_ISOTOPIC_ATOM_COUNT>
0

> <PUBCHEM_COMPONENT_COUNT>
1

> <PUBCHEM_CACTVS_TAUTO_COUNT>
-1

> <PUBCHEM_COORDINATE_TYPE>
1
5
255

> <PUBCHEM_BONDANNOTATIONS>
11  12  8
11  17  8
12  16  8
16  19  8
17  18  8
18  19  8
20  21  8
20  23  8
21  22  8
22  24  8
22  28  8
23  25  8
24  25  8
24  29  8
27  33  8
28  32  8
29  30  8
30  32  8
33  34  8
7  26  8
7  27  8
8  26  8
8  34  8

$$$$
