379077
     RDKit          2D

 22 24  0  0  0  0  0  0  0  0999 V2000
    6.3301    1.0000    0.0000 Cl  0  0  0  0  0  0  0  0  0  0  0  0
    2.0000    0.5000    0.0000 O   0  0  0  0  0  0  0  0  0  0  0  0
    8.0622   -2.0000    0.0000 O   0  0  0  0  0  0  0  0  0  0  0  0
    8.0622    2.0000    0.0000 O   0  0  0  0  0  0  0  0  0  0  0  0
    3.7320   -0.5000    0.0000 N   0  0  0  0  0  0  0  0  0  0  0  0
    6.3301   -1.0000    0.0000 N   0  0  0  0  0  0  0  0  0  0  0  0
    9.8222   -1.0347    0.0000 N   0  0  0  0  0  0  0  0  0  0  0  0
    2.8660   -1.0000    0.0000 C   0  0  0  0  0  0  0  0  0  0  0  0
    3.7320    0.5000    0.0000 C   0  0  0  0  0  0  0  0  0  0  0  0
    4.5981   -1.0000    0.0000 C   0  0  0  0  0  0  0  0  0  0  0  0
    2.0000   -0.5000    0.0000 C   0  0  0  0  0  0  0  0  0  0  0  0
    2.8660    1.0000    0.0000 C   0  0  0  0  0  0  0  0  0  0  0  0
    5.4641   -0.5000    0.0000 C   0  0  0  0  0  0  0  0  0  0  0  0
    7.1962   -0.5000    0.0000 C   0  0  0  0  0  0  0  0  0  0  0  0
    8.0622   -1.0000    0.0000 C   0  0  0  0  0  0  0  0  0  0  0  0
    7.1962    0.5000    0.0000 C   0  0  0  0  0  0  0  0  0  0  0  0
    8.9282   -0.5000    0.0000 C   0  0  0  0  0  0  0  0  0  0  0  0
    8.9282    0.5000    0.0000 C   0  0  0  0  0  0  0  0  0  0  0  0
    8.0622    1.0000    0.0000 C   0  0  0  0  0  0  0  0  0  0  0  0
    9.8222    1.0347    0.0000 C   0  0  0  0  0  0  0  0  0  0  0  0
   10.7282    0.5208    0.0000 C   0  0  0  0  0  0  0  0  0  0  0  0
   10.7282   -0.5208    0.0000 C   0  0  0  0  0  0  0  0  0  0  0  0
  1 16  1  0
  2 11  1  0
  2 12  1  0
  3 15  2  0
  4 19  2  0
  5  8  1  0
  5  9  1  0
  5 10  1  0
  6 13  1  0
  6 14  1  0
  7 17  2  0
  7 22  1  0
  8 11  1  0
  9 12  1  0
 10 13  1  0
 14 15  1  0
 14 16  2  0
 15 17  1  0
 16 19  1  0
 17 18  1  0
 18 19  1  0
 18 20  2  0
 20 21  1  0
 21 22  2  0
M  END
>  <PUBCHEM_COMPOUND_CID>  (1) 
379077

>  <PUBCHEM_COMPOUND_CANONICALIZED>  (1) 
1

>  <PUBCHEM_CACTVS_COMPLEXITY>  (1) 
488

>  <PUBCHEM_CACTVS_HBOND_ACCEPTOR>  (1) 
6

>  <PUBCHEM_CACTVS_HBOND_DONOR>  (1) 
1

>  <PUBCHEM_CACTVS_ROTATABLE_BOND>  (1) 
4

>  <PUBCHEM_CACTVS_SUBSKEYS>  (1) 
AAADceBzMAAEAAAAAAAAAAAAAAAAAAAAAAAsWIAAAAAAAACBgAAAHgIQAAAADA7hngY8gJPIFACoA7R3RACCgCA3AiAI2KG4ZthKYPrB1bGXIYhgkADYyccZiQAOAAAAAAAAAAAAAAAAAAAAAAAAAAAAAA==

>  <PUBCHEM_IUPAC_OPENEYE_NAME>  (1) 
6-chloro-7-(2-morpholinoethylamino)quinoline-5,8-dione

>  <PUBCHEM_IUPAC_CAS_NAME>  (1) 
6-chloro-7-[2-(4-morpholinyl)ethylamino]quinoline-5,8-dione

>  <PUBCHEM_IUPAC_NAME_MARKUP>  (1) 
6-chloro-7-(2-morpholin-4-ylethylamino)quinoline-5,8-dione

>  <PUBCHEM_IUPAC_NAME>  (1) 
6-chloro-7-(2-morpholin-4-ylethylamino)quinoline-5,8-dione

>  <PUBCHEM_IUPAC_SYSTEMATIC_NAME>  (1) 
6-chloranyl-7-(2-morpholin-4-ylethylamino)quinoline-5,8-dione

>  <PUBCHEM_IUPAC_TRADITIONAL_NAME>  (1) 
6-chloro-7-(2-morpholinoethylamino)quinoline-5,8-quinone

>  <PUBCHEM_IUPAC_INCHI>  (1) 
InChI=1S/C15H16ClN3O3/c16-11-13(18-4-5-19-6-8-22-9-7-19)15(21)12-10(14(11)20)2-1-3-17-12/h1-3,18H,4-9H2

>  <PUBCHEM_IUPAC_INCHIKEY>  (1) 
BMKPVDQDJQWBPD-UHFFFAOYSA-N

>  <PUBCHEM_XLOGP3_AA>  (1) 
1.4

>  <PUBCHEM_EXACT_MASS>  (1) 
321.0880191

>  <PUBCHEM_MOLECULAR_FORMULA>  (1) 
C15H16ClN3O3

>  <PUBCHEM_MOLECULAR_WEIGHT>  (1) 
321.76

>  <PUBCHEM_OPENEYE_CAN_SMILES>  (1) 
C1COCCN1CCNC2=C(C(=O)C3=C(C2=O)N=CC=C3)Cl

>  <PUBCHEM_OPENEYE_ISO_SMILES>  (1) 
C1COCCN1CCNC2=C(C(=O)C3=C(C2=O)N=CC=C3)Cl

>  <PUBCHEM_CACTVS_TPSA>  (1) 
71.5

>  <PUBCHEM_MONOISOTOPIC_WEIGHT>  (1) 
321.0880191

>  <PUBCHEM_TOTAL_CHARGE>  (1) 
0

>  <PUBCHEM_HEAVY_ATOM_COUNT>  (1) 
22

>  <PUBCHEM_ATOM_DEF_STEREO_COUNT>  (1) 
0

>  <PUBCHEM_ATOM_UDEF_STEREO_COUNT>  (1) 
0

>  <PUBCHEM_BOND_DEF_STEREO_COUNT>  (1) 
0

>  <PUBCHEM_BOND_UDEF_STEREO_COUNT>  (1) 
0

>  <PUBCHEM_ISOTOPIC_ATOM_COUNT>  (1) 
0

>  <PUBCHEM_COMPONENT_COUNT>  (1) 
1

>  <PUBCHEM_CACTVS_TAUTO_COUNT>  (1) 
-1

>  <PUBCHEM_COORDINATE_TYPE>  (1) 
1
5
255

>  <PUBCHEM_BONDANNOTATIONS>  (1) 
17  18  8
18  20  8
20  21  8
21  22  8
7  17  8
7  22  8

$$$$
