742338
     RDKit          2D

 19 21  0  0  0  0  0  0  0  0999 V2000
    2.0000   -0.0241    0.0000 Cl  0  0  0  0  0  0  0  0  0  0  0  0
    7.2622    2.0000    0.0000 O   0  0  0  0  0  0  0  0  0  0  0  0
    6.3961    0.5000    0.0000 N   0  0  0  0  0  0  0  0  0  0  0  0
    5.5301    2.0000    0.0000 N   0  0  0  0  0  0  0  0  0  0  0  0
    4.6641    0.5000    0.0000 C   0  0  0  0  0  0  0  0  0  0  0  0
    5.5301   -0.0000    0.0000 C   0  0  0  0  0  0  0  0  0  0  0  0
    4.6641    1.5000    0.0000 C   0  0  0  0  0  0  0  0  0  0  0  0
    5.5301   -1.0000    0.0000 C   0  0  0  0  0  0  0  0  0  0  0  0
    3.7702   -0.0347    0.0000 C   0  0  0  0  0  0  0  0  0  0  0  0
    3.7702    2.0347    0.0000 C   0  0  0  0  0  0  0  0  0  0  0  0
    6.3961   -1.5000    0.0000 C   0  0  0  0  0  0  0  0  0  0  0  0
    4.6641   -1.5000    0.0000 C   0  0  0  0  0  0  0  0  0  0  0  0
    2.8641    0.4792    0.0000 C   0  0  0  0  0  0  0  0  0  0  0  0
    2.8641    1.5208    0.0000 C   0  0  0  0  0  0  0  0  0  0  0  0
    6.3961    1.5000    0.0000 C   0  0  0  0  0  0  0  0  0  0  0  0
    6.3961   -2.5000    0.0000 C   0  0  0  0  0  0  0  0  0  0  0  0
    4.6641   -2.5000    0.0000 C   0  0  0  0  0  0  0  0  0  0  0  0
    5.5301   -3.0000    0.0000 C   0  0  0  0  0  0  0  0  0  0  0  0
    7.2622    3.0000    0.0000 C   0  0  0  0  0  0  0  0  0  0  0  0
  1 13  1  0
  2 15  1  0
  2 19  1  0
  3  6  2  0
  3 15  1  0
  4  7  1  0
  4 15  2  0
  5  6  1  0
  5  7  2  0
  5  9  1  0
  6  8  1  0
  7 10  1  0
  8 11  2  0
  8 12  1  0
  9 13  2  0
 10 14  2  0
 11 16  1  0
 12 17  2  0
 13 14  1  0
 16 18  2  0
 17 18  1  0
M  END
>  <PUBCHEM_COMPOUND_CID>  (1) 
742338

>  <PUBCHEM_COMPOUND_CANONICALIZED>  (1) 
1

>  <PUBCHEM_CACTVS_COMPLEXITY>  (1) 
296

>  <PUBCHEM_CACTVS_HBOND_ACCEPTOR>  (1) 
3

>  <PUBCHEM_CACTVS_HBOND_DONOR>  (1) 
0

>  <PUBCHEM_CACTVS_ROTATABLE_BOND>  (1) 
2

>  <PUBCHEM_CACTVS_SUBSKEYS>  (1) 
AAADccBzIAAEAAAAAAAAAAAAAAAAAAAAAAA8YIAAAAAAAACx9AAAHgIAAAAADAqBHiIz0PYIFACgAyRiZACCgCkhB6AJmCAwZpiIKKLB29GEJAhogAJIyCcQgMAOAABAIAACAAAAAIBAAAQAAAAAAAAAAA==

>  <PUBCHEM_IUPAC_OPENEYE_NAME>  (1) 
6-chloro-2-methoxy-4-phenyl-quinazoline

>  <PUBCHEM_IUPAC_CAS_NAME>  (1) 
6-chloro-2-methoxy-4-phenylquinazoline

>  <PUBCHEM_IUPAC_NAME_MARKUP>  (1) 
6-chloro-2-methoxy-4-phenylquinazoline

>  <PUBCHEM_IUPAC_NAME>  (1) 
6-chloro-2-methoxy-4-phenylquinazoline

>  <PUBCHEM_IUPAC_SYSTEMATIC_NAME>  (1) 
6-chloranyl-2-methoxy-4-phenyl-quinazoline

>  <PUBCHEM_IUPAC_TRADITIONAL_NAME>  (1) 
6-chloro-2-methoxy-4-phenyl-quinazoline

>  <PUBCHEM_IUPAC_INCHI>  (1) 
InChI=1S/C15H11ClN2O/c1-19-15-17-13-8-7-11(16)9-12(13)14(18-15)10-5-3-2-4-6-10/h2-9H,1H3

>  <PUBCHEM_IUPAC_INCHIKEY>  (1) 
VEHAPNUVJXSXGZ-UHFFFAOYSA-N

>  <PUBCHEM_XLOGP3>  (1) 
4.1

>  <PUBCHEM_EXACT_MASS>  (1) 
270.0559907

>  <PUBCHEM_MOLECULAR_FORMULA>  (1) 
C15H11ClN2O

>  <PUBCHEM_MOLECULAR_WEIGHT>  (1) 
270.71

>  <PUBCHEM_OPENEYE_CAN_SMILES>  (1) 
COC1=NC2=C(C=C(C=C2)Cl)C(=N1)C3=CC=CC=C3

>  <PUBCHEM_OPENEYE_ISO_SMILES>  (1) 
COC1=NC2=C(C=C(C=C2)Cl)C(=N1)C3=CC=CC=C3

>  <PUBCHEM_CACTVS_TPSA>  (1) 
35

>  <PUBCHEM_MONOISOTOPIC_WEIGHT>  (1) 
270.0559907

>  <PUBCHEM_TOTAL_CHARGE>  (1) 
0

>  <PUBCHEM_HEAVY_ATOM_COUNT>  (1) 
19

>  <PUBCHEM_ATOM_DEF_STEREO_COUNT>  (1) 
0

>  <PUBCHEM_ATOM_UDEF_STEREO_COUNT>  (1) 
0

>  <PUBCHEM_BOND_DEF_STEREO_COUNT>  (1) 
0

>  <PUBCHEM_BOND_UDEF_STEREO_COUNT>  (1) 
0

>  <PUBCHEM_ISOTOPIC_ATOM_COUNT>  (1) 
0

>  <PUBCHEM_COMPONENT_COUNT>  (1) 
1

>  <PUBCHEM_CACTVS_TAUTO_COUNT>  (1) 
-1

>  <PUBCHEM_COORDINATE_TYPE>  (1) 
1
5
255

>  <PUBCHEM_BONDANNOTATIONS>  (1) 
10  14  8
11  16  8
12  17  8
13  14  8
16  18  8
17  18  8
3  15  8
3  6  8
4  15  8
4  7  8
5  6  8
5  7  8
5  9  8
7  10  8
8  11  8
8  12  8
9  13  8

$$$$
