135398739
     RDKit          2D

 17 19  0  0  1  0  0  0  0  0999 V2000
    4.9395    0.7369    0.0000 O   0  0  0  0  0  0  0  0  0  0  0  0
    5.8917    3.2384    0.0000 O   0  0  0  0  0  0  0  0  0  0  0  0
    3.4030   -3.8284    0.0000 O   0  0  0  0  0  0  0  0  0  0  0  0
    5.2152   -1.0237    0.0000 N   0  0  0  0  0  0  0  0  0  0  0  0
    5.2152   -2.6332    0.0000 N   0  0  0  0  0  0  0  0  0  0  0  0
    3.4030   -0.8284    0.0000 N   0  0  0  0  0  0  0  0  0  0  0  0
    2.5369   -2.3284    0.0000 N   0  0  0  0  0  0  0  0  0  0  0  0
    5.5259   -0.0732    0.0000 C   0  0  0  0  0  0  0  0  0  0  0  0
    6.4775    0.2342    0.0000 C   0  0  0  0  0  0  0  0  0  0  0  0
    6.4792    1.2342    0.0000 C   0  0  0  0  0  0  0  0  0  0  0  0
    5.5287    1.5449    0.0000 C   0  0  0  0  0  0  0  0  0  0  0  0
    5.2213    2.4964    0.0000 C   0  0  0  0  0  0  0  0  0  0  0  0
    4.2690   -1.3284    0.0000 C   0  0  0  0  0  0  0  0  0  0  0  0
    5.7988   -1.8284    0.0000 C   0  0  0  0  0  0  0  0  0  0  0  0
    4.2690   -2.3284    0.0000 C   0  0  0  0  0  0  0  0  0  0  0  0
    3.4030   -2.8284    0.0000 C   0  0  0  0  0  0  0  0  0  0  0  0
    2.5369   -1.3284    0.0000 C   0  0  0  0  0  0  0  0  0  0  0  0
  1  8  1  0
  1 11  1  0
  2 12  1  0
  3 16  2  0
  8  4  1  6
  4 13  1  0
  4 14  1  0
  5 14  2  0
  5 15  1  0
  6 13  1  0
  6 17  2  0
  7 16  1  0
  7 17  1  0
  8  9  1  0
  9 10  1  0
 10 11  1  0
 11 12  1  6
 13 15  2  0
 15 16  1  0
M  END
>  <PUBCHEM_COMPOUND_CID>  (1) 
135398739

>  <PUBCHEM_COMPOUND_CANONICALIZED>  (1) 
1

>  <PUBCHEM_CACTVS_COMPLEXITY>  (1) 
348

>  <PUBCHEM_CACTVS_HBOND_ACCEPTOR>  (1) 
5

>  <PUBCHEM_CACTVS_HBOND_DONOR>  (1) 
2

>  <PUBCHEM_CACTVS_ROTATABLE_BOND>  (1) 
2

>  <PUBCHEM_CACTVS_SUBSKEYS>  (1) 
AAADccBzsAAAAAAAAAAAAAAAAAAAAWJAAAAgAAAAAAAAAEABgAAAHgAQCAAACBzhlgYFsBfMFgCoAQdxdACAgC0XEKABUIGoVECBWApAyCAeQIgMAgLDAGCwMAIAAAAAAAAAAAAAAAAAAAAAAAAAAAAAAA==

>  <PUBCHEM_IUPAC_OPENEYE_NAME>  (1) 
9-[(2R,5S)-5-(hydroxymethyl)tetrahydrofuran-2-yl]-1H-purin-6-one

>  <PUBCHEM_IUPAC_CAS_NAME>  (1) 
9-[(2R,5S)-5-(hydroxymethyl)-2-oxolanyl]-1H-purin-6-one

>  <PUBCHEM_IUPAC_NAME_MARKUP>  (1) 
9-[(2<I>R</I>,5<I>S</I>)-5-(hydroxymethyl)oxolan-2-yl]-1<I>H</I>-purin-6-one

>  <PUBCHEM_IUPAC_NAME>  (1) 
9-[(2R,5S)-5-(hydroxymethyl)oxolan-2-yl]-1H-purin-6-one

>  <PUBCHEM_IUPAC_SYSTEMATIC_NAME>  (1) 
9-[(2R,5S)-5-(hydroxymethyl)oxolan-2-yl]-1H-purin-6-one

>  <PUBCHEM_IUPAC_TRADITIONAL_NAME>  (1) 
9-[(2R,5S)-5-methyloltetrahydrofuran-2-yl]hypoxanthine

>  <PUBCHEM_IUPAC_INCHI>  (1) 
InChI=1S/C10H12N4O3/c15-3-6-1-2-7(17-6)14-5-13-8-9(14)11-4-12-10(8)16/h4-7,15H,1-3H2,(H,11,12,16)/t6-,7+/m0/s1

>  <PUBCHEM_IUPAC_INCHIKEY>  (1) 
BXZVVICBKDXVGW-NKWVEPMBSA-N

>  <PUBCHEM_XLOGP3>  (1) 
-1.2

>  <PUBCHEM_EXACT_MASS>  (1) 
236.09094026

>  <PUBCHEM_MOLECULAR_FORMULA>  (1) 
C10H12N4O3

>  <PUBCHEM_MOLECULAR_WEIGHT>  (1) 
236.23

>  <PUBCHEM_REFERENCE_STANDARDIZATION>  (1) 
Bypass - this structure was created from CID 135398739

>  <PUBCHEM_OPENEYE_CAN_SMILES>  (1) 
C1CC(OC1CO)N2C=NC3=C2N=CNC3=O

>  <PUBCHEM_OPENEYE_ISO_SMILES>  (1) 
C1C[C@@H](O[C@@H]1CO)N2C=NC3=C2N=CNC3=O

>  <PUBCHEM_CACTVS_TPSA>  (1) 
88.7

>  <PUBCHEM_MONOISOTOPIC_WEIGHT>  (1) 
236.09094026

>  <PUBCHEM_TOTAL_CHARGE>  (1) 
0

>  <PUBCHEM_HEAVY_ATOM_COUNT>  (1) 
17

>  <PUBCHEM_ATOM_DEF_STEREO_COUNT>  (1) 
2

>  <PUBCHEM_ATOM_UDEF_STEREO_COUNT>  (1) 
0

>  <PUBCHEM_BOND_DEF_STEREO_COUNT>  (1) 
0

>  <PUBCHEM_BOND_UDEF_STEREO_COUNT>  (1) 
0

>  <PUBCHEM_ISOTOPIC_ATOM_COUNT>  (1) 
0

>  <PUBCHEM_COMPONENT_COUNT>  (1) 
1

>  <PUBCHEM_CACTVS_TAUTO_COUNT>  (1) 
-1

>  <PUBCHEM_COORDINATE_TYPE>  (1) 
1
5
255

>  <PUBCHEM_BONDANNOTATIONS>  (1) 
11  12  6
13  15  8
15  16  8
4  13  8
4  14  8
8  4  6
5  14  8
5  15  8
6  13  8
6  17  8
7  16  8
7  17  8

$$$$
