16741
     RDKit          2D

 11 11  0  0  0  0  0  0  0  0999 V2000
    5.4641    2.7500    0.0000 S   0  0  0  0  0  0  0  0  0  0  0  0
    3.7320    1.7500    0.0000 N   0  0  0  0  0  0  0  0  0  0  0  0
    2.8660    0.2500    0.0000 C   0  0  0  0  0  0  0  0  0  0  0  0
    2.8660   -0.7500    0.0000 C   0  0  0  0  0  0  0  0  0  0  0  0
    3.7320    0.7500    0.0000 C   0  0  0  0  0  0  0  0  0  0  0  0
    3.7320   -1.2500    0.0000 C   0  0  0  0  0  0  0  0  0  0  0  0
    2.0000   -1.2500    0.0000 C   0  0  0  0  0  0  0  0  0  0  0  0
    3.7320   -2.2500    0.0000 C   0  0  0  0  0  0  0  0  0  0  0  0
    2.0000   -2.2500    0.0000 C   0  0  0  0  0  0  0  0  0  0  0  0
    2.8660   -2.7500    0.0000 C   0  0  0  0  0  0  0  0  0  0  0  0
    4.5981    2.2500    0.0000 C   0  0  0  0  0  0  0  0  0  0  0  0
  1 11  2  0
  2  5  1  0
  2 11  2  0
  3  4  1  0
  3  5  1  0
  4  6  2  0
  4  7  1  0
  6  8  1  0
  7  9  2  0
  8 10  2  0
  9 10  1  0
M  END
>  <PUBCHEM_COMPOUND_CID>  (1) 
16741

>  <PUBCHEM_COMPOUND_CANONICALIZED>  (1) 
1

>  <PUBCHEM_CACTVS_COMPLEXITY>  (1) 
144

>  <PUBCHEM_CACTVS_HBOND_ACCEPTOR>  (1) 
2

>  <PUBCHEM_CACTVS_HBOND_DONOR>  (1) 
0

>  <PUBCHEM_CACTVS_ROTATABLE_BOND>  (1) 
3

>  <PUBCHEM_CACTVS_SUBSKEYS>  (1) 
AAADccByAABAAAAAAAAAAAAAAAAAAAAAAAAwAAAAAAAAAAABAAAAHAQAAAAADADBGAQwAIIAAACkAiBCBAACAAAgAAAIiAAAAIgIICKAkRGAIAAggAAIiAcQgIAOAAAAAAAAAAAAAAAAAAAAAAAAAAAAAA==

>  <PUBCHEM_IUPAC_OPENEYE_NAME>  (1) 
2-isothiocyanatoethylbenzene

>  <PUBCHEM_IUPAC_CAS_NAME>  (1) 
2-isothiocyanatoethylbenzene

>  <PUBCHEM_IUPAC_NAME_MARKUP>  (1) 
2-isothiocyanatoethylbenzene

>  <PUBCHEM_IUPAC_NAME>  (1) 
2-isothiocyanatoethylbenzene

>  <PUBCHEM_IUPAC_SYSTEMATIC_NAME>  (1) 
2-isothiocyanatoethylbenzene

>  <PUBCHEM_IUPAC_TRADITIONAL_NAME>  (1) 
2-isothiocyanatoethylbenzene

>  <PUBCHEM_IUPAC_INCHI>  (1) 
InChI=1S/C9H9NS/c11-8-10-7-6-9-4-2-1-3-5-9/h1-5H,6-7H2

>  <PUBCHEM_IUPAC_INCHIKEY>  (1) 
IZJDOKYDEWTZSO-UHFFFAOYSA-N

>  <PUBCHEM_XLOGP3>  (1) 
3.5

>  <PUBCHEM_EXACT_MASS>  (1) 
163.04557046

>  <PUBCHEM_MOLECULAR_FORMULA>  (1) 
C9H9NS

>  <PUBCHEM_MOLECULAR_WEIGHT>  (1) 
163.24

>  <PUBCHEM_OPENEYE_CAN_SMILES>  (1) 
C1=CC=C(C=C1)CCN=C=S

>  <PUBCHEM_OPENEYE_ISO_SMILES>  (1) 
C1=CC=C(C=C1)CCN=C=S

>  <PUBCHEM_CACTVS_TPSA>  (1) 
44.4

>  <PUBCHEM_MONOISOTOPIC_WEIGHT>  (1) 
163.04557046

>  <PUBCHEM_TOTAL_CHARGE>  (1) 
0

>  <PUBCHEM_HEAVY_ATOM_COUNT>  (1) 
11

>  <PUBCHEM_ATOM_DEF_STEREO_COUNT>  (1) 
0

>  <PUBCHEM_ATOM_UDEF_STEREO_COUNT>  (1) 
0

>  <PUBCHEM_BOND_DEF_STEREO_COUNT>  (1) 
0

>  <PUBCHEM_BOND_UDEF_STEREO_COUNT>  (1) 
0

>  <PUBCHEM_ISOTOPIC_ATOM_COUNT>  (1) 
0

>  <PUBCHEM_COMPONENT_COUNT>  (1) 
1

>  <PUBCHEM_CACTVS_TAUTO_COUNT>  (1) 
-1

>  <PUBCHEM_COORDINATE_TYPE>  (1) 
1
5
255

>  <PUBCHEM_BONDANNOTATIONS>  (1) 
4  6  8
4  7  8
6  8  8
7  9  8
8  10  8
9  10  8

$$$$
