LAQ824 (Dacinostat)
  -OEChem-12182004303D

 53 55  0     1  0  0  0  0  0999 V2000
    5.9245    2.0512    2.0246 O   0  0  0  0  0  0  0  0  0  0  0  0
   -6.0330    1.5549   -0.3241 O   0  0  0  0  0  0  0  0  0  0  0  0
   -7.2154   -0.3144    1.2381 O   0  0  0  0  0  0  0  0  0  0  0  0
    3.2072    1.1081   -0.2823 N   0  0  2  0  0  0  0  0  0  0  0  0
    1.3095   -2.2963    1.7634 N   0  0  0  0  0  0  0  0  0  0  0  0
   -5.8209   -0.1811    1.1873 N   0  0  0  0  0  0  0  0  0  0  0  0
    3.2194    0.1970   -1.4216 C   0  0  0  0  0  0  0  0  0  0  0  0
    3.4722   -1.2591   -0.9898 C   0  0  0  0  0  0  0  0  0  0  0  0
    2.4299   -1.7798   -0.0820 C   0  0  0  0  0  0  0  0  0  0  0  0
    2.5180    2.3527   -0.6260 C   0  0  0  0  0  0  0  0  0  0  0  0
    4.5719    1.3900    0.1659 C   0  0  0  0  0  0  0  0  0  0  0  0
    1.2331   -2.4500   -0.4610 C   0  0  0  0  0  0  0  0  0  0  0  0
    0.5486   -2.7631    0.7153 C   0  0  0  0  0  0  0  0  0  0  0  0
    2.4483   -1.7005    1.2915 C   0  0  0  0  0  0  0  0  0  0  0  0
    1.0214    2.2020   -0.5596 C   0  0  0  0  0  0  0  0  0  0  0  0
    4.5816    1.8047    1.6286 C   0  0  0  0  0  0  0  0  0  0  0  0
    0.6649   -2.8214   -1.6957 C   0  0  0  0  0  0  0  0  0  0  0  0
   -0.6807   -3.4318    0.7186 C   0  0  0  0  0  0  0  0  0  0  0  0
    0.4335    1.5489    0.5238 C   0  0  0  0  0  0  0  0  0  0  0  0
    0.2229    2.7150   -1.5817 C   0  0  0  0  0  0  0  0  0  0  0  0
   -0.5642   -3.4908   -1.7078 C   0  0  0  0  0  0  0  0  0  0  0  0
   -1.2249   -3.7902   -0.5180 C   0  0  0  0  0  0  0  0  0  0  0  0
   -0.9529    1.4093    0.5851 C   0  0  0  0  0  0  0  0  0  0  0  0
   -1.1636    2.5752   -1.5204 C   0  0  0  0  0  0  0  0  0  0  0  0
   -1.7515    1.9224   -0.4370 C   0  0  0  0  0  0  0  0  0  0  0  0
   -3.1973    1.7760   -0.3735 C   0  0  0  0  0  0  0  0  0  0  0  0
   -3.8574    0.8681    0.3799 C   0  0  0  0  0  0  0  0  0  0  0  0
   -5.3451    0.8027    0.3584 C   0  0  0  0  0  0  0  0  0  0  0  0
    2.2533    0.2120   -1.9435 H   0  0  0  0  0  0  0  0  0  0  0  0
    3.9702    0.4982   -2.1646 H   0  0  0  0  0  0  0  0  0  0  0  0
    3.5118   -1.8796   -1.8945 H   0  0  0  0  0  0  0  0  0  0  0  0
    4.4590   -1.3722   -0.5267 H   0  0  0  0  0  0  0  0  0  0  0  0
    2.8372    2.7146   -1.6130 H   0  0  0  0  0  0  0  0  0  0  0  0
    2.7603    3.1584    0.0781 H   0  0  0  0  0  0  0  0  0  0  0  0
    5.0584    2.1532   -0.4571 H   0  0  0  0  0  0  0  0  0  0  0  0
    5.2230    0.5117    0.0866 H   0  0  0  0  0  0  0  0  0  0  0  0
    3.1687   -1.2787    1.9780 H   0  0  0  0  0  0  0  0  0  0  0  0
    1.0625   -2.3816    2.7396 H   0  0  0  0  0  0  0  0  0  0  0  0
    4.0097    2.7196    1.8067 H   0  0  0  0  0  0  0  0  0  0  0  0
    4.1774    1.0110    2.2651 H   0  0  0  0  0  0  0  0  0  0  0  0
    1.1653   -2.5943   -2.6327 H   0  0  0  0  0  0  0  0  0  0  0  0
   -1.1962   -3.6647    1.6442 H   0  0  0  0  0  0  0  0  0  0  0  0
    1.0350    1.1610    1.3413 H   0  0  0  0  0  0  0  0  0  0  0  0
    0.6676    3.2260   -2.4315 H   0  0  0  0  0  0  0  0  0  0  0  0
   -1.0077   -3.7789   -2.6572 H   0  0  0  0  0  0  0  0  0  0  0  0
   -2.1790   -4.3102   -0.5507 H   0  0  0  0  0  0  0  0  0  0  0  0
   -1.3667    0.9138    1.4584 H   0  0  0  0  0  0  0  0  0  0  0  0
   -1.7695    2.9803   -2.3273 H   0  0  0  0  0  0  0  0  0  0  0  0
    5.9036    2.3033    2.9635 H   0  0  0  0  0  0  0  0  0  0  0  0
   -3.7632    2.4598   -1.0025 H   0  0  0  0  0  0  0  0  0  0  0  0
   -3.3434    0.1457    1.0044 H   0  0  0  0  0  0  0  0  0  0  0  0
   -5.2761   -0.8667    1.6980 H   0  0  0  0  0  0  0  0  0  0  0  0
   -7.4081    0.2028    2.0385 H   0  0  0  0  0  0  0  0  0  0  0  0
  1 16  1  0  0  0  0
  1 49  1  0  0  0  0
  2 28  2  0  0  0  0
  3  6  1  0  0  0  0
  3 53  1  0  0  0  0
  4  7  1  0  0  0  0
  4 10  1  0  0  0  0
  4 11  1  0  0  0  0
  5 13  1  0  0  0  0
  5 14  1  0  0  0  0
  5 38  1  0  0  0  0
  6 28  1  0  0  0  0
  6 52  1  0  0  0  0
  7  8  1  0  0  0  0
  7 29  1  0  0  0  0
  7 30  1  0  0  0  0
  8  9  1  0  0  0  0
  8 31  1  0  0  0  0
  8 32  1  0  0  0  0
  9 12  1  0  0  0  0
  9 14  2  0  0  0  0
 10 15  1  0  0  0  0
 10 33  1  0  0  0  0
 10 34  1  0  0  0  0
 11 16  1  0  0  0  0
 11 35  1  0  0  0  0
 11 36  1  0  0  0  0
 12 13  1  0  0  0  0
 12 17  2  0  0  0  0
 13 18  2  0  0  0  0
 14 37  1  0  0  0  0
 15 19  2  0  0  0  0
 15 20  1  0  0  0  0
 16 39  1  0  0  0  0
 16 40  1  0  0  0  0
 17 21  1  0  0  0  0
 17 41  1  0  0  0  0
 18 22  1  0  0  0  0
 18 42  1  0  0  0  0
 19 23  1  0  0  0  0
 19 43  1  0  0  0  0
 20 24  2  0  0  0  0
 20 44  1  0  0  0  0
 21 22  2  0  0  0  0
 21 45  1  0  0  0  0
 22 46  1  0  0  0  0
 23 25  2  0  0  0  0
 23 47  1  0  0  0  0
 24 25  1  0  0  0  0
 24 48  1  0  0  0  0
 25 26  1  0  0  0  0
 26 27  2  0  0  0  0
 26 50  1  0  0  0  0
 27 28  1  0  0  0  0
 27 51  1  0  0  0  0
M  END
> <PUBCHEM_COMPOUND_CID>
6445533

> <PUBCHEM_CONFORMER_RMSD>
1

> <PUBCHEM_CONFORMER_DIVERSEORDER>
1
20
126
102
108
154
104
2
74
28
53
118
85
62
141
121
130
124
101
112
68
44
122
115
113
79
31
48
128
111
7
59
92
37
73
110
18
145
63
135
34
30
144
127
96
57
61
131
58
42
64
19
46
136
65
117
116
134
55
29
24
95
156
15
14
86
98
157
77
140
106
67
22
83
25
129
71
84
146
94
43
21
8
91
143
4
45
132
76
81
17
155
51
72
149
11
153
75
38
49
35
23
50
138
13
40
93
5
16
99
27
103
26
12
90
32
69
10
60
70
123
39
52
120
137
36
6
100
41
119
54
107
33
80
9
78
56
88
142
148
109
151
97
150
114
158
87
133
47
66
3
105
139
147
125
89
82
152

> <PUBCHEM_MMFF94_PARTIAL_CHARGES>
42
1 -0.68
10 0.41
11 0.27
13 -0.15
14 -0.3
15 -0.14
16 0.28
17 -0.15
18 -0.15
19 -0.15
2 -0.57
20 -0.15
21 -0.15
22 -0.15
23 -0.15
24 -0.15
25 0.03
26 -0.18
27 -0.14
28 0.62
3 -0.44
37 0.15
38 0.27
4 -0.81
41 0.15
42 0.15
43 0.15
44 0.15
45 0.15
46 0.15
47 0.15
48 0.15
49 0.4
5 0.03
50 0.15
51 0.15
52 0.37
53 0.4
6 -0.39
7 0.27
8 0.18
9 -0.18

> <PUBCHEM_EFFECTIVE_ROTOR_COUNT>
10

> <PUBCHEM_PHARMACOPHORE_FEATURES>
10
1 1 acceptor
1 1 donor
1 2 acceptor
1 4 cation
1 5 cation
1 5 donor
1 6 donor
5 5 9 12 13 14 rings
6 12 13 17 18 21 22 rings
6 15 19 20 23 24 25 rings

> <PUBCHEM_HEAVY_ATOM_COUNT>
28

> <PUBCHEM_ATOM_DEF_STEREO_COUNT>
0

> <PUBCHEM_ATOM_UDEF_STEREO_COUNT>
0

> <PUBCHEM_BOND_DEF_STEREO_COUNT>
1

> <PUBCHEM_BOND_UDEF_STEREO_COUNT>
0

> <PUBCHEM_ISOTOPIC_ATOM_COUNT>
0

> <PUBCHEM_COMPONENT_COUNT>
1

> <PUBCHEM_CACTVS_TAUTO_COUNT>
3

> <PUBCHEM_CONFORMER_ID>
006259DD00000001

> <PUBCHEM_MMFF94_ENERGY>
60.2348

> <PUBCHEM_FEATURE_SELFOVERLAP>
50.838

> <PUBCHEM_SHAPE_FINGERPRINT>
10316853 100 18334869341478284939
104564 63 17905893931051388012
10816530 23 16844723269709459532
11513181 2 18060703905163857071
11578080 2 17488447737491987658
12156800 1 17830491557536937215
12422481 6 18338512057987563322
12596602 18 17561090189868810297
12788726 201 17545046360582170668
13402501 40 18261404321217688731
1361 2 18409172099937787235
14725015 67 18044373825049353531
14863182 85 18335434442888899917
15338160 23 17836345414280818848
15721738 202 18270418100768386643
15968369 153 17768531939024972983
17138139 8 17771315820882586509
17492 54 18044967643301795270
19301679 30 18115327609453127241
1979834 28 18411706452501347201
20642791 13 17908695482178401940
21197605 99 18264784331768246363
21344244 181 17987820522390833582
22956985 138 17824817833099276530
23559900 14 17689432685801183047
3052486 1 18116718607013781716
338550 245 18190471652192272535
394071 54 18196389022347466945
4340502 62 18272369793288741736
463206 1 18339650035727381599
5309563 4 18262245408927005797
6287921 2 18058167215900424471
6438718 38 18199461254945104326
653340 110 17621876921500550896
7226269 152 15813134273804842732
7399639 24 18262508191863497156

> <PUBCHEM_SHAPE_MULTIPOLES>
543.68
10.83
5.12
1.69
15.71
4.14
0.07
-6.95
5.81
-1.07
-1.19
-1.04
0.17
1.18

> <PUBCHEM_SHAPE_SELFOVERLAP>
1157.333

> <PUBCHEM_SHAPE_VOLUME>
303.9

> <PUBCHEM_COORDINATE_TYPE>
2
5
10

$$$$
