4413
     RDKit          2D

 27 29  0  0  0  0  0  0  0  0999 V2000
    8.6651    0.5954    0.0000 O   0  0  0  0  0  0  0  0  0  0  0  0
    9.5369   -0.9013    0.0000 O   0  0  0  0  0  0  0  0  0  0  0  0
    2.5369   -0.9288    0.0000 N   0  0  0  0  0  0  0  0  0  0  0  0
    3.4030   -2.4288    0.0000 N   0  0  0  0  0  0  0  0  0  0  0  0
   12.9895    2.1121    0.0000 N   0  0  0  0  0  0  0  0  0  0  0  0
   14.7215    2.1188    0.0000 N   0  0  0  0  0  0  0  0  0  0  0  0
   13.8613    0.6154    0.0000 N   0  0  0  0  0  0  0  0  0  0  0  0
    6.0010   -0.9288    0.0000 C   0  0  0  0  0  0  0  0  0  0  0  0
    6.0010    0.0712    0.0000 C   0  0  0  0  0  0  0  0  0  0  0  0
    5.1350   -1.4288    0.0000 C   0  0  0  0  0  0  0  0  0  0  0  0
    6.8950    0.6059    0.0000 C   0  0  0  0  0  0  0  0  0  0  0  0
    4.2690   -0.9288    0.0000 C   0  0  0  0  0  0  0  0  0  0  0  0
    5.1350    0.5712    0.0000 C   0  0  0  0  0  0  0  0  0  0  0  0
    6.8950   -1.4634    0.0000 C   0  0  0  0  0  0  0  0  0  0  0  0
    7.8010    0.0921    0.0000 C   0  0  0  0  0  0  0  0  0  0  0  0
    4.2690    0.0712    0.0000 C   0  0  0  0  0  0  0  0  0  0  0  0
    7.8010   -0.9496    0.0000 C   0  0  0  0  0  0  0  0  0  0  0  0
    3.4030   -1.4288    0.0000 C   0  0  0  0  0  0  0  0  0  0  0  0
   10.3972    0.6021    0.0000 C   0  0  0  0  0  0  0  0  0  0  0  0
    9.5331    0.0987    0.0000 C   0  0  0  0  0  0  0  0  0  0  0  0
   11.2651    0.1054    0.0000 C   0  0  0  0  0  0  0  0  0  0  0  0
   10.3933    1.6021    0.0000 C   0  0  0  0  0  0  0  0  0  0  0  0
   12.1254    1.6087    0.0000 C   0  0  0  0  0  0  0  0  0  0  0  0
   12.1292    0.6088    0.0000 C   0  0  0  0  0  0  0  0  0  0  0  0
   11.2574    2.1054    0.0000 C   0  0  0  0  0  0  0  0  0  0  0  0
   13.8574    1.6154    0.0000 C   0  0  0  0  0  0  0  0  0  0  0  0
    2.8660   -2.7388    0.0000 H   0  0  0  0  0  0  0  0  0  0  0  0
  1 15  1  0
  1 20  1  0
  2 20  2  0
  3 18  1  0
  4 18  2  0
  4 27  1  0
  5 23  1  0
  5 26  2  0
  6 26  1  0
  7 26  1  0
  8  9  1  0
  8 10  2  0
  8 14  1  0
  9 11  1  0
  9 13  2  0
 10 12  1  0
 11 15  2  0
 12 16  2  0
 12 18  1  0
 13 16  1  0
 14 17  2  0
 15 17  1  0
 19 20  1  0
 19 21  2  0
 19 22  1  0
 21 24  1  0
 22 25  2  0
 23 24  2  0
 23 25  1  0
M  END
>  <PUBCHEM_COMPOUND_CID>  (1) 
4413

>  <PUBCHEM_COMPOUND_CANONICALIZED>  (1) 
1

>  <PUBCHEM_CACTVS_COMPLEXITY>  (1) 
552

>  <PUBCHEM_CACTVS_HBOND_ACCEPTOR>  (1) 
4

>  <PUBCHEM_CACTVS_HBOND_DONOR>  (1) 
4

>  <PUBCHEM_CACTVS_ROTATABLE_BOND>  (1) 
5

>  <PUBCHEM_CACTVS_SUBSKEYS>  (1) 
AAADceB7sAAAAAAAAAAAAAAAAAAAAAAAAAAwYMAAAAAAAADBVAAAHgAQAAAADAyBmAAxzsJABACoAibybACCCAGkIgAIiAEmbNgMJrKEtZuCOyDkwBEI6YeY2fGe6AADAAAQAADQAAYAACAAAAAAAAAAAA==

>  <PUBCHEM_IUPAC_OPENEYE_NAME>  (1) 
(6-carbamimidoyl-2-naphthyl) 4-guanidinobenzoate

>  <PUBCHEM_IUPAC_CAS_NAME>  (1) 
4-(diaminomethylideneamino)benzoic acid (6-carbamimidoyl-2-naphthalenyl) ester

>  <PUBCHEM_IUPAC_NAME_MARKUP>  (1) 
(6-carbamimidoylnaphthalen-2-yl) 4-(diaminomethylideneamino)benzoate

>  <PUBCHEM_IUPAC_NAME>  (1) 
(6-carbamimidoylnaphthalen-2-yl) 4-(diaminomethylideneamino)benzoate

>  <PUBCHEM_IUPAC_SYSTEMATIC_NAME>  (1) 
(6-carbamimidoylnaphthalen-2-yl) 4-[bis(azanyl)methylideneamino]benzoate

>  <PUBCHEM_IUPAC_TRADITIONAL_NAME>  (1) 
4-guanidinobenzoic acid (6-amidino-2-naphthyl) ester

>  <PUBCHEM_IUPAC_INCHI>  (1) 
InChI=1S/C19H17N5O2/c20-17(21)14-2-1-13-10-16(8-5-12(13)9-14)26-18(25)11-3-6-15(7-4-11)24-19(22)23/h1-10H,(H3,20,21)(H4,22,23,24)

>  <PUBCHEM_IUPAC_INCHIKEY>  (1) 
MQQNFDZXWVTQEH-UHFFFAOYSA-N

>  <PUBCHEM_XLOGP3_AA>  (1) 
2

>  <PUBCHEM_EXACT_MASS>  (1) 
347.13822480

>  <PUBCHEM_MOLECULAR_FORMULA>  (1) 
C19H17N5O2

>  <PUBCHEM_MOLECULAR_WEIGHT>  (1) 
347.4

>  <PUBCHEM_OPENEYE_CAN_SMILES>  (1) 
C1=CC(=CC=C1C(=O)OC2=CC3=C(C=C2)C=C(C=C3)C(=N)N)N=C(N)N

>  <PUBCHEM_OPENEYE_ISO_SMILES>  (1) 
C1=CC(=CC=C1C(=O)OC2=CC3=C(C=C2)C=C(C=C3)C(=N)N)N=C(N)N

>  <PUBCHEM_CACTVS_TPSA>  (1) 
141

>  <PUBCHEM_MONOISOTOPIC_WEIGHT>  (1) 
347.13822480

>  <PUBCHEM_TOTAL_CHARGE>  (1) 
0

>  <PUBCHEM_HEAVY_ATOM_COUNT>  (1) 
26

>  <PUBCHEM_ATOM_DEF_STEREO_COUNT>  (1) 
0

>  <PUBCHEM_ATOM_UDEF_STEREO_COUNT>  (1) 
0

>  <PUBCHEM_BOND_DEF_STEREO_COUNT>  (1) 
0

>  <PUBCHEM_BOND_UDEF_STEREO_COUNT>  (1) 
0

>  <PUBCHEM_ISOTOPIC_ATOM_COUNT>  (1) 
0

>  <PUBCHEM_COMPONENT_COUNT>  (1) 
1

>  <PUBCHEM_CACTVS_TAUTO_COUNT>  (1) 
-1

>  <PUBCHEM_COORDINATE_TYPE>  (1) 
1
5
255

>  <PUBCHEM_BONDANNOTATIONS>  (1) 
10  12  8
11  15  8
12  16  8
13  16  8
14  17  8
15  17  8
19  21  8
19  22  8
21  24  8
22  25  8
23  24  8
23  25  8
8  10  8
8  14  8
8  9  8
9  11  8
9  13  8

$$$$
