11404337
     RDKit          2D

 24 27  0  0  0  0  0  0  0  0999 V2000
    8.6097    2.3121    0.0000 O   0  0  0  0  0  0  0  0  0  0  0  0
    6.8497    0.4153    0.0000 N   0  0  0  0  0  0  0  0  0  0  0  0
    9.2484   -1.5271    0.0000 N   0  0  0  0  0  0  0  0  0  0  0  0
    4.6783    0.4196    0.0000 N   0  0  0  0  0  0  0  0  0  0  0  0
    7.8007    0.7244    0.0000 C   0  0  0  0  0  0  0  0  0  0  0  0
    6.2619    1.2244    0.0000 C   0  0  0  0  0  0  0  0  0  0  0  0
    8.5052   -0.8580    0.0000 C   0  0  0  0  0  0  0  0  0  0  0  0
    7.6392   -1.3580    0.0000 C   0  0  0  0  0  0  0  0  0  0  0  0
    8.6097    0.1366    0.0000 C   0  0  0  0  0  0  0  0  0  0  0  0
    5.2619    1.2244    0.0000 C   0  0  0  0  0  0  0  0  0  0  0  0
    7.8007    1.7244    0.0000 C   0  0  0  0  0  0  0  0  0  0  0  0
    6.8497    2.0334    0.0000 C   0  0  0  0  0  0  0  0  0  0  0  0
    8.8416   -2.4406    0.0000 C   0  0  0  0  0  0  0  0  0  0  0  0
    7.8471   -2.3361    0.0000 C   0  0  0  0  0  0  0  0  0  0  0  0
    3.7320    1.7244    0.0000 C   0  0  0  0  0  0  0  0  0  0  0  0
    4.6783    2.0291    0.0000 C   0  0  0  0  0  0  0  0  0  0  0  0
    3.7320    0.7244    0.0000 C   0  0  0  0  0  0  0  0  0  0  0  0
    6.7256   -0.9512    0.0000 C   0  0  0  0  0  0  0  0  0  0  0  0
    9.3416   -3.3067    0.0000 C   0  0  0  0  0  0  0  0  0  0  0  0
    2.8660    2.2244    0.0000 C   0  0  0  0  0  0  0  0  0  0  0  0
    2.8660    0.2244    0.0000 C   0  0  0  0  0  0  0  0  0  0  0  0
    2.0000    1.7244    0.0000 C   0  0  0  0  0  0  0  0  0  0  0  0
    2.0000    0.7244    0.0000 C   0  0  0  0  0  0  0  0  0  0  0  0
    8.5052    3.3067    0.0000 C   0  0  0  0  0  0  0  0  0  0  0  0
  1 11  1  0
  1 24  1  0
  2  5  1  0
  2  6  1  0
  3  7  1  0
  3 13  1  0
  4 10  1  0
  4 17  2  0
  5  9  2  0
  5 11  1  0
  6 10  2  0
  6 12  1  0
  7  8  2  0
  7  9  1  0
  8 14  1  0
  8 18  1  0
 10 16  1  0
 11 12  2  0
 13 14  2  0
 13 19  1  0
 15 16  2  0
 15 17  1  0
 15 20  1  0
 17 21  1  0
 20 22  2  0
 21 23  2  0
 22 23  1  0
M  END
>  <PUBCHEM_COMPOUND_CID>  (1) 
11404337

>  <PUBCHEM_COMPOUND_CANONICALIZED>  (1) 
1

>  <PUBCHEM_CACTVS_COMPLEXITY>  (1) 
777

>  <PUBCHEM_CACTVS_HBOND_ACCEPTOR>  (1) 
3

>  <PUBCHEM_CACTVS_HBOND_DONOR>  (1) 
2

>  <PUBCHEM_CACTVS_ROTATABLE_BOND>  (1) 
2

>  <PUBCHEM_CACTVS_SUBSKEYS>  (1) 
AAADceB7IAAAAAAAAAAAAAAAAAAAAWIEAAAgAAAAAAAAAEABgAAAHgAQAAAADAyBngIygJLJlACgAyRiRACCiCAhIiAImSAwZJgKJOLAsZGFEAhgkADY6AcQAAAOAAAAAAAAAAAAAAAAAAAAAAAAAAAAAA==

>  <PUBCHEM_IUPAC_OPENEYE_NAME>  (1) 
(2Z)-2-[(5Z)-5-[(3,5-dimethyl-1H-pyrrol-2-yl)methylene]-4-methoxy-pyrrol-2-ylidene]indole

>  <PUBCHEM_IUPAC_CAS_NAME>  (1) 
(2Z)-2-[(5Z)-5-[(3,5-dimethyl-1H-pyrrol-2-yl)methylidene]-4-methoxy-2-pyrrolylidene]indole

>  <PUBCHEM_IUPAC_NAME_MARKUP>  (1) 
(2<I>Z</I>)-2-[(5<I>Z</I>)-5-[(3,5-dimethyl-1<I>H</I>-pyrrol-2-yl)methylidene]-4-methoxypyrrol-2-ylidene]indole

>  <PUBCHEM_IUPAC_NAME>  (1) 
(2Z)-2-[(5Z)-5-[(3,5-dimethyl-1H-pyrrol-2-yl)methylidene]-4-methoxypyrrol-2-ylidene]indole

>  <PUBCHEM_IUPAC_SYSTEMATIC_NAME>  (1) 
(2Z)-2-[(5Z)-5-[(3,5-dimethyl-1H-pyrrol-2-yl)methylidene]-4-methoxy-pyrrol-2-ylidene]indole

>  <PUBCHEM_IUPAC_TRADITIONAL_NAME>  (1) 
(2Z)-2-[(5Z)-5-[(3,5-dimethyl-1H-pyrrol-2-yl)methylene]-4-methoxy-3-pyrrolin-2-ylidene]indole

>  <PUBCHEM_IUPAC_INCHI>  (1) 
InChI=1S/C20H19N3O/c1-12-8-13(2)21-16(12)10-19-20(24-3)11-18(23-19)17-9-14-6-4-5-7-15(14)22-17/h4-11,21,23H,1-3H3/b18-17-,19-10-

>  <PUBCHEM_IUPAC_INCHIKEY>  (1) 
CVCLJVVBHYOXDC-IAZSKANUSA-N

>  <PUBCHEM_XLOGP3_AA>  (1) 
3.3

>  <PUBCHEM_EXACT_MASS>  (1) 
317.152812238

>  <PUBCHEM_MOLECULAR_FORMULA>  (1) 
C20H19N3O

>  <PUBCHEM_MOLECULAR_WEIGHT>  (1) 
317.4

>  <PUBCHEM_OPENEYE_CAN_SMILES>  (1) 
CC1=CC(=C(N1)C=C2C(=CC(=C3C=C4C=CC=CC4=N3)N2)OC)C

>  <PUBCHEM_OPENEYE_ISO_SMILES>  (1) 
CC1=CC(=C(N1)/C=C\2/C(=C/C(=C/3\C=C4C=CC=CC4=N3)/N2)OC)C

>  <PUBCHEM_CACTVS_TPSA>  (1) 
49.4

>  <PUBCHEM_MONOISOTOPIC_WEIGHT>  (1) 
317.152812238

>  <PUBCHEM_TOTAL_CHARGE>  (1) 
0

>  <PUBCHEM_HEAVY_ATOM_COUNT>  (1) 
24

>  <PUBCHEM_ATOM_DEF_STEREO_COUNT>  (1) 
0

>  <PUBCHEM_ATOM_UDEF_STEREO_COUNT>  (1) 
0

>  <PUBCHEM_BOND_DEF_STEREO_COUNT>  (1) 
2

>  <PUBCHEM_BOND_UDEF_STEREO_COUNT>  (1) 
0

>  <PUBCHEM_ISOTOPIC_ATOM_COUNT>  (1) 
0

>  <PUBCHEM_COMPONENT_COUNT>  (1) 
1

>  <PUBCHEM_CACTVS_TAUTO_COUNT>  (1) 
-1

>  <PUBCHEM_COORDINATE_TYPE>  (1) 
1
5
255

>  <PUBCHEM_BONDANNOTATIONS>  (1) 
11  12  8
13  14  8
15  17  8
15  20  8
17  21  8
2  5  8
2  6  8
20  22  8
21  23  8
22  23  8
3  13  8
3  7  8
5  11  8
6  12  8
7  8  8
8  14  8

$$$$
