11848155
     RDKit          2D

 30 34  0  0  1  0  0  0  0  0999 V2000
    2.0883    2.6141    0.0000 O   0  0  0  0  0  0  0  0  0  0  0  0
    8.2704   -0.9552    0.0000 O   0  0  0  0  0  0  0  0  0  0  0  0
    3.8622    3.6382    0.0000 O   0  0  0  0  0  0  0  0  0  0  0  0
    8.2704    1.0931    0.0000 O   0  0  0  0  0  0  0  0  0  0  0  0
    3.8583   -2.5003    0.0000 N   0  0  0  0  0  0  0  0  0  0  0  0
    2.9562   -1.9795    0.0000 C   0  0  0  0  0  0  0  0  0  0  0  0
    2.0084   -2.5074    0.0000 C   0  0  0  0  0  0  0  0  0  0  0  0
    2.9643   -0.9379    0.0000 C   0  0  0  0  0  0  0  0  0  0  0  0
    3.8751   -3.5852    0.0000 C   0  0  0  0  0  0  0  0  0  0  0  0
    4.7564   -1.9725    0.0000 C   0  0  0  0  0  0  0  0  0  0  0  0
    2.0000   -3.5924    0.0000 C   0  0  0  0  0  0  0  0  0  0  0  0
    3.8743   -0.4310    0.0000 C   0  0  0  0  0  0  0  0  0  0  0  0
    2.9396   -4.1349    0.0000 C   0  0  0  0  0  0  0  0  0  0  0  0
    4.7403   -0.9310    0.0000 C   0  0  0  0  0  0  0  0  0  0  0  0
    3.8743    0.5690    0.0000 C   0  0  0  0  0  0  0  0  0  0  0  0
    5.6063   -0.4310    0.0000 C   0  0  0  0  0  0  0  0  0  0  0  0
    4.7403    1.0690    0.0000 C   0  0  0  0  0  0  0  0  0  0  0  0
    5.6063    0.5690    0.0000 C   0  0  0  0  0  0  0  0  0  0  0  0
    2.9643    1.0758    0.0000 C   0  0  0  0  0  0  0  0  0  0  0  0
    6.5003   -0.9657    0.0000 C   0  0  0  0  0  0  0  0  0  0  0  0
    4.7564    2.1105    0.0000 C   0  0  0  0  0  0  0  0  0  0  0  0
    6.5003    1.1036    0.0000 C   0  0  0  0  0  0  0  0  0  0  0  0
    2.9562    2.1174    0.0000 C   0  0  0  0  0  0  0  0  0  0  0  0
    7.4063   -0.4518    0.0000 C   0  0  0  0  0  0  0  0  0  0  0  0
    3.8583    2.6382    0.0000 C   0  0  0  0  0  0  0  0  0  0  0  0
    7.4063    0.5898    0.0000 C   0  0  0  0  0  0  0  0  0  0  0  0
    2.0844    3.6141    0.0000 C   0  0  0  0  0  0  0  0  0  0  0  0
    9.1384   -0.4585    0.0000 C   0  0  0  0  0  0  0  0  0  0  0  0
    4.7301    4.1349    0.0000 C   0  0  0  0  0  0  0  0  0  0  0  0
    8.2666    2.0931    0.0000 C   0  0  0  0  0  0  0  0  0  0  0  0
  1 23  1  0
  1 27  1  0
  2 24  1  0
  2 28  1  0
  3 25  1  0
  3 29  1  0
  4 26  1  0
  4 30  1  0
  5  6  1  0
  5  9  1  0
  5 10  1  0
  6  7  1  0
  6  8  1  0
  7 11  1  0
  8 12  1  0
  9 13  1  0
 10 14  1  0
 11 13  1  0
 12 14  2  0
 12 15  1  0
 14 16  1  0
 15 17  2  0
 15 19  1  0
 16 18  2  0
 16 20  1  0
 17 18  1  0
 17 21  1  0
 18 22  1  0
 19 23  2  0
 20 24  2  0
 21 25  2  0
 22 26  2  0
 23 25  1  0
 24 26  1  0
M  END
>  <PUBCHEM_COMPOUND_CID>  (1) 
11848155

>  <PUBCHEM_COMPOUND_CANONICALIZED>  (1) 
1

>  <PUBCHEM_CACTVS_COMPLEXITY>  (1) 
588

>  <PUBCHEM_CACTVS_HBOND_ACCEPTOR>  (1) 
5

>  <PUBCHEM_CACTVS_HBOND_DONOR>  (1) 
0

>  <PUBCHEM_CACTVS_ROTATABLE_BOND>  (1) 
4

>  <PUBCHEM_CACTVS_SUBSKEYS>  (1) 
AAADceB6OAAAAAAAAAAAAAAAAAAAAAAAAAA8eMECAAAAAADxVAAAHgAAAAAADCzBmAYyBsMABACAAiBCAACCCAAgIAAAiAAOjIgNJiKEsBuEMCpkwBGKqAeQ0PIO4AADAAAQQADAAAYAACCAAAAAAAAAAA==

>  <PUBCHEM_IUPAC_OPENEYE_NAME>  (1) 
2,3,6,7-tetramethoxy-11,12,13,14,14a,15-hexahydro-9H-phenanthro[9,10-b]quinolizine

>  <PUBCHEM_IUPAC_CAS_NAME>  (1) 
2,3,6,7-tetramethoxy-11,12,13,14,14a,15-hexahydro-9H-phenanthro[9,10-b]quinolizine

>  <PUBCHEM_IUPAC_NAME_MARKUP>  (1) 
2,3,6,7-tetramethoxy-11,12,13,14,14<I>a</I>,15-hexahydro-9<I>H</I>-phenanthro[9,10-b]quinolizine

>  <PUBCHEM_IUPAC_NAME>  (1) 
2,3,6,7-tetramethoxy-11,12,13,14,14a,15-hexahydro-9H-phenanthro[9,10-b]quinolizine

>  <PUBCHEM_IUPAC_SYSTEMATIC_NAME>  (1) 
2,3,6,7-tetramethoxy-11,12,13,14,14a,15-hexahydro-9H-phenanthro[9,10-b]quinolizine

>  <PUBCHEM_IUPAC_TRADITIONAL_NAME>  (1) 
2,3,6,7-tetramethoxy-11,12,13,14,14a,15-hexahydro-9H-phenanthro[9,10-b]quinolizine

>  <PUBCHEM_IUPAC_INCHI>  (1) 
InChI=1S/C25H29NO4/c1-27-22-10-17-16-9-15-7-5-6-8-26(15)14-21(16)20-13-25(30-4)24(29-3)12-19(20)18(17)11-23(22)28-2/h10-13,15H,5-9,14H2,1-4H3

>  <PUBCHEM_IUPAC_INCHIKEY>  (1) 
LTUGUGXKMMPGRF-UHFFFAOYSA-N

>  <PUBCHEM_XLOGP3_AA>  (1) 
5.1

>  <PUBCHEM_EXACT_MASS>  (1) 
407.20965841

>  <PUBCHEM_MOLECULAR_FORMULA>  (1) 
C25H29NO4

>  <PUBCHEM_MOLECULAR_WEIGHT>  (1) 
407.5

>  <PUBCHEM_OPENEYE_CAN_SMILES>  (1) 
COC1=C(C=C2C(=C1)C3=C(CN4CCCCC4C3)C5=CC(=C(C=C52)OC)OC)OC

>  <PUBCHEM_OPENEYE_ISO_SMILES>  (1) 
COC1=C(C=C2C(=C1)C3=C(CN4CCCCC4C3)C5=CC(=C(C=C52)OC)OC)OC

>  <PUBCHEM_CACTVS_TPSA>  (1) 
40.2

>  <PUBCHEM_MONOISOTOPIC_WEIGHT>  (1) 
407.20965841

>  <PUBCHEM_TOTAL_CHARGE>  (1) 
0

>  <PUBCHEM_HEAVY_ATOM_COUNT>  (1) 
30

>  <PUBCHEM_ATOM_DEF_STEREO_COUNT>  (1) 
0

>  <PUBCHEM_ATOM_UDEF_STEREO_COUNT>  (1) 
1

>  <PUBCHEM_BOND_DEF_STEREO_COUNT>  (1) 
0

>  <PUBCHEM_BOND_UDEF_STEREO_COUNT>  (1) 
0

>  <PUBCHEM_ISOTOPIC_ATOM_COUNT>  (1) 
0

>  <PUBCHEM_COMPONENT_COUNT>  (1) 
1

>  <PUBCHEM_CACTVS_TAUTO_COUNT>  (1) 
-1

>  <PUBCHEM_COORDINATE_TYPE>  (1) 
1
5
255

>  <PUBCHEM_BONDANNOTATIONS>  (1) 
12  14  8
12  15  8
14  16  8
15  17  8
15  19  8
16  18  8
16  20  8
17  18  8
17  21  8
18  22  8
19  23  8
20  24  8
21  25  8
22  26  8
23  25  8
24  26  8
6  7  3

$$$$
