3652
     RDKit          2D

 23 24  0  0  1  0  0  0  0  0999 V2000
    2.0000   -4.6618    0.0000 Cl  0  0  0  0  0  0  0  0  0  0  0  0
    8.9942    4.3623    0.0000 O   0  0  0  0  0  0  0  0  0  0  0  0
    8.1282    1.8623    0.0000 N   0  0  0  0  0  0  0  0  0  0  0  0
    5.5301   -1.6377    0.0000 N   0  0  0  0  0  0  0  0  0  0  0  0
    5.5301   -4.6377    0.0000 N   0  0  0  0  0  0  0  0  0  0  0  0
    6.3961   -0.1377    0.0000 C   0  0  0  0  0  0  0  0  0  0  0  0
    7.2622    0.3623    0.0000 C   0  0  0  0  0  0  0  0  0  0  0  0
    6.3961   -1.1377    0.0000 C   0  0  0  0  0  0  0  0  0  0  0  0
    7.2622    1.3623    0.0000 C   0  0  0  0  0  0  0  0  0  0  0  0
    8.1282    2.8623    0.0000 C   0  0  0  0  0  0  0  0  0  0  0  0
    7.2622   -1.6377    0.0000 C   0  0  0  0  0  0  0  0  0  0  0  0
    8.9942    1.3623    0.0000 C   0  0  0  0  0  0  0  0  0  0  0  0
    5.5301   -2.6377    0.0000 C   0  0  0  0  0  0  0  0  0  0  0  0
    8.9942    3.3623    0.0000 C   0  0  0  0  0  0  0  0  0  0  0  0
    9.8602    1.8623    0.0000 C   0  0  0  0  0  0  0  0  0  0  0  0
    4.6641   -3.1377    0.0000 C   0  0  0  0  0  0  0  0  0  0  0  0
    6.3961   -3.1377    0.0000 C   0  0  0  0  0  0  0  0  0  0  0  0
    4.6641   -4.1377    0.0000 C   0  0  0  0  0  0  0  0  0  0  0  0
    3.7702   -2.6030    0.0000 C   0  0  0  0  0  0  0  0  0  0  0  0
    6.3961   -4.1377    0.0000 C   0  0  0  0  0  0  0  0  0  0  0  0
    3.7702   -4.6723    0.0000 C   0  0  0  0  0  0  0  0  0  0  0  0
    2.8641   -3.1168    0.0000 C   0  0  0  0  0  0  0  0  0  0  0  0
    2.8641   -4.1585    0.0000 C   0  0  0  0  0  0  0  0  0  0  0  0
  1 23  1  0
  2 14  1  0
  3  9  1  0
  3 10  1  0
  3 12  1  0
  4  8  1  0
  4 13  1  0
  5 18  2  0
  5 20  1  0
  6  7  1  0
  6  8  1  0
  7  9  1  0
  8 11  1  0
 10 14  1  0
 12 15  1  0
 13 16  2  0
 13 17  1  0
 16 18  1  0
 16 19  1  0
 17 20  2  0
 18 21  1  0
 19 22  2  0
 21 23  2  0
 22 23  1  0
M  END
>  <PUBCHEM_COMPOUND_CID>  (1) 
3652

>  <PUBCHEM_COMPOUND_CANONICALIZED>  (1) 
1

>  <PUBCHEM_CACTVS_COMPLEXITY>  (1) 
331

>  <PUBCHEM_CACTVS_HBOND_ACCEPTOR>  (1) 
4

>  <PUBCHEM_CACTVS_HBOND_DONOR>  (1) 
2

>  <PUBCHEM_CACTVS_ROTATABLE_BOND>  (1) 
9

>  <PUBCHEM_CACTVS_SUBSKEYS>  (1) 
AAADceB7IAAEAAAAAAAAAAAAAAAAAAAAAAA8QAAAAAAAAACx8AAAHgIQCAAADCrhniY+wPPIEgCgAzRnRACCgCAxByAI2KA4ZpgKMOLB09GEJAhgkADYyAcQgIAOBAAAAAICAAAIAAAABAQAAAAAAAAAAA==

>  <PUBCHEM_IUPAC_OPENEYE_NAME>  (1) 
2-[4-[(7-chloro-4-quinolyl)amino]pentyl-ethyl-amino]ethanol

>  <PUBCHEM_IUPAC_CAS_NAME>  (1) 
2-[4-[(7-chloro-4-quinolinyl)amino]pentyl-ethylamino]ethanol

>  <PUBCHEM_IUPAC_NAME_MARKUP>  (1) 
2-[4-[(7-chloroquinolin-4-yl)amino]pentyl-ethylamino]ethanol

>  <PUBCHEM_IUPAC_NAME>  (1) 
2-[4-[(7-chloroquinolin-4-yl)amino]pentyl-ethylamino]ethanol

>  <PUBCHEM_IUPAC_SYSTEMATIC_NAME>  (1) 
2-[4-[(7-chloranylquinolin-4-yl)amino]pentyl-ethyl-amino]ethanol

>  <PUBCHEM_IUPAC_TRADITIONAL_NAME>  (1) 
2-[4-[(7-chloro-4-quinolyl)amino]pentyl-ethyl-amino]ethanol

>  <PUBCHEM_IUPAC_INCHI>  (1) 
InChI=1S/C18H26ClN3O/c1-3-22(11-12-23)10-4-5-14(2)21-17-8-9-20-18-13-15(19)6-7-16(17)18/h6-9,13-14,23H,3-5,10-12H2,1-2H3,(H,20,21)

>  <PUBCHEM_IUPAC_INCHIKEY>  (1) 
XXSMGPRMXLTPCZ-UHFFFAOYSA-N

>  <PUBCHEM_XLOGP3>  (1) 
3.6

>  <PUBCHEM_EXACT_MASS>  (1) 
335.1764402

>  <PUBCHEM_MOLECULAR_FORMULA>  (1) 
C18H26ClN3O

>  <PUBCHEM_MOLECULAR_WEIGHT>  (1) 
335.9

>  <PUBCHEM_OPENEYE_CAN_SMILES>  (1) 
CCN(CCCC(C)NC1=C2C=CC(=CC2=NC=C1)Cl)CCO

>  <PUBCHEM_OPENEYE_ISO_SMILES>  (1) 
CCN(CCCC(C)NC1=C2C=CC(=CC2=NC=C1)Cl)CCO

>  <PUBCHEM_CACTVS_TPSA>  (1) 
48.4

>  <PUBCHEM_MONOISOTOPIC_WEIGHT>  (1) 
335.1764402

>  <PUBCHEM_TOTAL_CHARGE>  (1) 
0

>  <PUBCHEM_HEAVY_ATOM_COUNT>  (1) 
23

>  <PUBCHEM_ATOM_DEF_STEREO_COUNT>  (1) 
0

>  <PUBCHEM_ATOM_UDEF_STEREO_COUNT>  (1) 
1

>  <PUBCHEM_BOND_DEF_STEREO_COUNT>  (1) 
0

>  <PUBCHEM_BOND_UDEF_STEREO_COUNT>  (1) 
0

>  <PUBCHEM_ISOTOPIC_ATOM_COUNT>  (1) 
0

>  <PUBCHEM_COMPONENT_COUNT>  (1) 
1

>  <PUBCHEM_CACTVS_TAUTO_COUNT>  (1) 
-1

>  <PUBCHEM_COORDINATE_TYPE>  (1) 
1
5
255

>  <PUBCHEM_BONDANNOTATIONS>  (1) 
13  16  8
13  17  8
16  18  8
16  19  8
17  20  8
18  21  8
19  22  8
21  23  8
22  23  8
5  18  8
5  20  8
8  11  3

$$$$
