121304016
     RDKit          2D

 42 45  0  0  1  0  0  0  0  0999 V2000
    6.5916   -0.5056    0.0000 P   0  0  0  0  0  0  0  0  0  0  0  0
    5.5781    2.4117    0.0000 O   0  0  0  0  0  0  0  0  0  0  0  0
    3.2284    3.4954    0.0000 O   0  0  0  0  0  0  0  0  0  0  0  0
    3.2321    1.3198    0.0000 O   0  0  0  0  0  0  0  0  0  0  0  0
    6.2809    0.4449    0.0000 O   0  0  0  0  0  0  0  0  0  0  0  0
    7.5421   -0.1950    0.0000 O   0  0  0  0  0  0  0  0  0  0  0  0
    5.6410   -0.8163    0.0000 O   0  0  0  0  0  0  0  0  0  0  0  0
    5.8772   -3.8953    0.0000 O   0  0  0  0  0  0  0  0  0  0  0  0
    7.5236   -3.3572    0.0000 O   0  0  0  0  0  0  0  0  0  0  0  0
    3.7320    4.4749    0.0000 N   0  0  0  0  0  0  0  0  0  0  0  0
    2.8660    3.9749    0.0000 N   0  0  0  0  0  0  0  0  0  0  0  0
    6.9022   -1.4562    0.0000 N   0  0  0  0  0  0  0  0  0  0  0  0
    6.6049    4.3980    0.0000 N   0  0  0  0  0  0  0  0  0  0  0  0
    2.0000    5.4749    0.0000 N   0  0  0  0  0  0  0  0  0  0  0  0
    2.8660    6.9749    0.0000 N   0  0  0  0  0  0  0  0  0  0  0  0
    4.9889    3.2197    0.0000 C   0  0  0  0  0  0  0  0  0  0  0  0
    4.0384    2.9090    0.0000 C   0  0  0  0  0  0  0  0  0  0  0  0
    4.0401    1.9090    0.0000 C   0  0  0  0  0  0  0  0  0  0  0  0
    4.9917    1.6016    0.0000 C   0  0  0  0  0  0  0  0  0  0  0  0
    4.6783    4.1702    0.0000 C   0  0  0  0  0  0  0  0  0  0  0  0
    5.3024    0.6511    0.0000 C   0  0  0  0  0  0  0  0  0  0  0  0
    5.7969    3.8088    0.0000 C   0  0  0  0  0  0  0  0  0  0  0  0
    5.2619    4.9749    0.0000 C   0  0  0  0  0  0  0  0  0  0  0  0
    3.7320    5.4749    0.0000 C   0  0  0  0  0  0  0  0  0  0  0  0
    4.6783    5.7796    0.0000 C   0  0  0  0  0  0  0  0  0  0  0  0
    2.8660    5.9749    0.0000 C   0  0  0  0  0  0  0  0  0  0  0  0
    6.2344   -2.2004    0.0000 C   0  0  0  0  0  0  0  0  0  0  0  0
    2.0000    4.4749    0.0000 C   0  0  0  0  0  0  0  0  0  0  0  0
    5.5200   -5.5901    0.0000 C   0  0  0  0  0  0  0  0  0  0  0  0
    6.1879   -4.8458    0.0000 C   0  0  0  0  0  0  0  0  0  0  0  0
    5.8307   -6.5406    0.0000 C   0  0  0  0  0  0  0  0  0  0  0  0
    4.5415   -5.3839    0.0000 C   0  0  0  0  0  0  0  0  0  0  0  0
    6.5450   -3.1510    0.0000 C   0  0  0  0  0  0  0  0  0  0  0  0
    5.2559   -1.9942    0.0000 C   0  0  0  0  0  0  0  0  0  0  0  0
    8.2864   -0.8628    0.0000 C   0  0  0  0  0  0  0  0  0  0  0  0
    5.1628   -7.2849    0.0000 C   0  0  0  0  0  0  0  0  0  0  0  0
    3.8737   -6.1282    0.0000 C   0  0  0  0  0  0  0  0  0  0  0  0
    9.2369   -0.5521    0.0000 C   0  0  0  0  0  0  0  0  0  0  0  0
    8.0802   -1.8413    0.0000 C   0  0  0  0  0  0  0  0  0  0  0  0
    9.9812   -1.2200    0.0000 C   0  0  0  0  0  0  0  0  0  0  0  0
    8.8245   -2.5092    0.0000 C   0  0  0  0  0  0  0  0  0  0  0  0
    9.7750   -2.1985    0.0000 C   0  0  0  0  0  0  0  0  0  0  0  0
  1  5  1  0
  1  6  1  0
  1  7  2  0
  1 12  1  6
  2 16  1  0
  2 19  1  0
 17  3  1  1
 18  4  1  1
  5 21  1  0
  6 35  1  0
  8 30  1  0
  8 33  1  0
  9 33  2  0
 10 11  1  0
 10 20  1  0
 10 24  1  0
 11 28  2  0
 27 12  1  0
 13 22  3  0
 14 26  2  0
 14 28  1  0
 15 26  1  0
 16 17  1  0
 16 20  1  0
 16 22  1  1
 17 18  1  0
 18 19  1  0
 19 21  1  6
 20 23  2  0
 23 25  1  0
 24 25  2  0
 24 26  1  0
 27 33  1  0
 27 34  1  6
 29 30  1  0
 29 31  1  0
 29 32  1  0
 31 36  1  0
 32 37  1  0
 35 38  2  0
 35 39  1  0
 38 40  1  0
 39 41  2  0
 40 42  2  0
 41 42  1  0
M  END
>  <PUBCHEM_COMPOUND_CID>  (1) 
121304016

>  <PUBCHEM_COMPOUND_CANONICALIZED>  (1) 
1

>  <PUBCHEM_CACTVS_COMPLEXITY>  (1) 
1010

>  <PUBCHEM_CACTVS_HBOND_ACCEPTOR>  (1) 
13

>  <PUBCHEM_CACTVS_HBOND_DONOR>  (1) 
4

>  <PUBCHEM_CACTVS_ROTATABLE_BOND>  (1) 
14

>  <PUBCHEM_CACTVS_SUBSKEYS>  (1) 
AAADcfB7vAIAAAAAAAAAAAAAAAAAAWJAAAA8QAAAAAAAAFgB8AAAHgAYiCAADXzhlgY3/rZIFxC6RSbzbISShC8xsqAd2KG+fJiL/uLAuZuX8Ahn2BPb6C/w8PcOAAAAAAAAAAAAAAAAAAAAAAAAAAAAAA==

>  <PUBCHEM_IUPAC_OPENEYE_NAME>  (1) 
2-ethylbutyl (2S)-2-[[[(2R,3S,4R,5R)-5-(4-aminopyrrolo[2,1-f][1,2,4]triazin-7-yl)-5-cyano-3,4-dihydroxy-tetrahydrofuran-2-yl]methoxy-phenoxy-phosphoryl]amino]propanoate

>  <PUBCHEM_IUPAC_CAS_NAME>  (1) 
(2S)-2-[[[(2R,3S,4R,5R)-5-(4-amino-7-pyrrolo[2,1-f][1,2,4]triazinyl)-5-cyano-3,4-dihydroxy-2-oxolanyl]methoxy-phenoxyphosphoryl]amino]propanoic acid 2-ethylbutyl ester

>  <PUBCHEM_IUPAC_NAME_MARKUP>  (1) 
2-ethylbutyl (2<I>S</I>)-2-[[[(2<I>R</I>,3<I>S</I>,4<I>R</I>,5<I>R</I>)-5-(4-aminopyrrolo[2,1-f][1,2,4]triazin-7-yl)-5-cyano-3,4-dihydroxyoxolan-2-yl]methoxy-phenoxyphosphoryl]amino]propanoate

>  <PUBCHEM_IUPAC_NAME>  (1) 
2-ethylbutyl (2S)-2-[[[(2R,3S,4R,5R)-5-(4-aminopyrrolo[2,1-f][1,2,4]triazin-7-yl)-5-cyano-3,4-dihydroxyoxolan-2-yl]methoxy-phenoxyphosphoryl]amino]propanoate

>  <PUBCHEM_IUPAC_SYSTEMATIC_NAME>  (1) 
2-ethylbutyl (2S)-2-[[[(2R,3S,4R,5R)-5-(4-azanylpyrrolo[2,1-f][1,2,4]triazin-7-yl)-5-cyano-3,4-bis(oxidanyl)oxolan-2-yl]methoxy-phenoxy-phosphoryl]amino]propanoate

>  <PUBCHEM_IUPAC_TRADITIONAL_NAME>  (1) 
(2S)-2-[[[(2R,3S,4R,5R)-5-(4-aminopyrrolo[2,1-f][1,2,4]triazin-7-yl)-5-cyano-3,4-dihydroxy-tetrahydrofuran-2-yl]methoxy-phenoxy-phosphoryl]amino]propionic acid 2-ethylbutyl ester

>  <PUBCHEM_IUPAC_INCHI>  (1) 
InChI=1S/C27H35N6O8P/c1-4-18(5-2)13-38-26(36)17(3)32-42(37,41-19-9-7-6-8-10-19)39-14-21-23(34)24(35)27(15-28,40-21)22-12-11-20-25(29)30-16-31-33(20)22/h6-12,16-18,21,23-24,34-35H,4-5,13-14H2,1-3H3,(H,32,37)(H2,29,30,31)/t17-,21+,23+,24+,27-,42-/m0/s1

>  <PUBCHEM_IUPAC_INCHIKEY>  (1) 
RWWYLEGWBNMMLJ-YSOARWBDSA-N

>  <PUBCHEM_XLOGP3_AA>  (1) 
1.9

>  <PUBCHEM_EXACT_MASS>  (1) 
602.22539909

>  <PUBCHEM_MOLECULAR_FORMULA>  (1) 
C27H35N6O8P

>  <PUBCHEM_MOLECULAR_WEIGHT>  (1) 
602.6

>  <PUBCHEM_OPENEYE_CAN_SMILES>  (1) 
CCC(CC)COC(=O)C(C)NP(=O)(OCC1C(C(C(O1)(C#N)C2=CC=C3N2N=CN=C3N)O)O)OC4=CC=CC=C4

>  <PUBCHEM_OPENEYE_ISO_SMILES>  (1) 
CCC(CC)COC(=O)[C@H](C)N[P@](=O)(OC[C@@H]1[C@H]([C@H]([C@](O1)(C#N)C2=CC=C3N2N=CN=C3N)O)O)OC4=CC=CC=C4

>  <PUBCHEM_CACTVS_TPSA>  (1) 
204

>  <PUBCHEM_MONOISOTOPIC_WEIGHT>  (1) 
602.22539909

>  <PUBCHEM_TOTAL_CHARGE>  (1) 
0

>  <PUBCHEM_HEAVY_ATOM_COUNT>  (1) 
42

>  <PUBCHEM_ATOM_DEF_STEREO_COUNT>  (1) 
6

>  <PUBCHEM_ATOM_UDEF_STEREO_COUNT>  (1) 
0

>  <PUBCHEM_BOND_DEF_STEREO_COUNT>  (1) 
0

>  <PUBCHEM_BOND_UDEF_STEREO_COUNT>  (1) 
0

>  <PUBCHEM_ISOTOPIC_ATOM_COUNT>  (1) 
0

>  <PUBCHEM_COMPONENT_COUNT>  (1) 
1

>  <PUBCHEM_CACTVS_TAUTO_COUNT>  (1) 
6

>  <PUBCHEM_COORDINATE_TYPE>  (1) 
1
5
255

>  <PUBCHEM_BONDANNOTATIONS>  (1) 
1  5  6
10  11  8
10  20  8
10  24  8
11  28  8
27  12  6
14  26  8
14  28  8
16  22  5
19  21  6
20  23  8
23  25  8
24  25  8
24  26  8
17  3  5
35  38  8
35  39  8
38  40  8
39  41  8
18  4  5
40  42  8
41  42  8

$$$$
