23646370
     RDKit          2D

 37 37  0  0  1  0  0  0  0  0999 V2000
   10.3312   -3.5000    0.0000 S   0  0  0  0  0  0  0  0  0  0  0  0
    2.5369    4.0000    0.0000 S   0  0  0  0  0  0  0  0  0  0  0  0
    5.1350    0.5000    0.0000 O   0  0  0  0  0  0  0  0  0  0  0  0
    7.7331   -2.0000    0.0000 O   0  0  0  0  0  0  0  0  0  0  0  0
    6.0010    4.0000    0.0000 O   0  0  0  0  0  0  0  0  0  0  0  0
    6.0010   -5.0000    0.0000 O   0  0  0  0  0  0  0  0  0  0  0  0
   11.1972   -1.0000    0.0000 O   0  0  0  0  0  0  0  0  0  0  0  0
   10.3312    0.5000    0.0000 O   0  0  0  0  0  0  0  0  0  0  0  0
    6.8671    0.5000    0.0000 N   0  0  0  0  0  0  0  0  0  0  0  0
    5.1350    2.5000    0.0000 N   0  0  0  0  0  0  0  0  0  0  0  0
    8.5991   -0.5000    0.0000 N   0  0  0  0  0  0  0  0  0  0  0  0
    4.2690    5.0000    0.0000 N   0  0  0  0  0  0  0  0  0  0  0  0
    6.0010    2.0000    0.0000 C   0  0  0  0  0  0  0  0  0  0  0  0
    6.8671    2.5000    0.0000 C   0  0  0  0  0  0  0  0  0  0  0  0
    6.8671   -0.5000    0.0000 C   0  0  0  0  0  0  0  0  0  0  0  0
    6.0010   -1.0000    0.0000 C   0  0  0  0  0  0  0  0  0  0  0  0
    6.0010    1.0000    0.0000 C   0  0  0  0  0  0  0  0  0  0  0  0
    6.0010   -2.0000    0.0000 C   0  0  0  0  0  0  0  0  0  0  0  0
    7.7331   -1.0000    0.0000 C   0  0  0  0  0  0  0  0  0  0  0  0
    6.8671    3.5000    0.0000 C   0  0  0  0  0  0  0  0  0  0  0  0
    7.7331    2.0000    0.0000 C   0  0  0  0  0  0  0  0  0  0  0  0
    5.1350   -2.5000    0.0000 C   0  0  0  0  0  0  0  0  0  0  0  0
    9.4651   -1.0000    0.0000 C   0  0  0  0  0  0  0  0  0  0  0  0
    6.8671   -2.5000    0.0000 C   0  0  0  0  0  0  0  0  0  0  0  0
    5.1350    3.5000    0.0000 C   0  0  0  0  0  0  0  0  0  0  0  0
    9.4651   -2.0000    0.0000 C   0  0  0  0  0  0  0  0  0  0  0  0
    5.1350   -3.5000    0.0000 C   0  0  0  0  0  0  0  0  0  0  0  0
    4.2690    4.0000    0.0000 C   0  0  0  0  0  0  0  0  0  0  0  0
    4.2690   -2.0000    0.0000 C   0  0  0  0  0  0  0  0  0  0  0  0
    6.0010   -4.0000    0.0000 C   0  0  0  0  0  0  0  0  0  0  0  0
    6.8671   -3.5000    0.0000 C   0  0  0  0  0  0  0  0  0  0  0  0
   10.3312   -2.5000    0.0000 C   0  0  0  0  0  0  0  0  0  0  0  0
   10.3312   -0.5000    0.0000 C   0  0  0  0  0  0  0  0  0  0  0  0
    4.2690   -4.0000    0.0000 C   0  0  0  0  0  0  0  0  0  0  0  0
    3.4030    3.5000    0.0000 C   0  0  0  0  0  0  0  0  0  0  0  0
   11.1972   -4.0000    0.0000 C   0  0  0  0  0  0  0  0  0  0  0  0
   12.0632   -0.5000    0.0000 C   0  0  0  0  0  0  0  0  0  0  0  0
  1 32  1  0
  1 36  1  0
  2 35  1  0
  3 17  2  0
  4 19  2  0
  5 25  2  0
  6 30  1  0
  7 33  1  0
  7 37  1  0
  8 33  2  0
 15  9  1  0
  9 17  1  0
 13 10  1  1
 10 25  1  0
 11 19  1  0
 23 11  1  0
 28 12  1  6
 13 14  1  0
 13 17  1  0
 14 20  1  0
 14 21  1  0
 15 16  1  1
 15 19  1  0
 16 18  1  0
 18 22  2  0
 18 24  1  0
 22 27  1  0
 22 29  1  0
 23 26  1  6
 23 33  1  0
 24 31  2  0
 25 28  1  0
 26 32  1  0
 27 30  2  0
 27 34  1  0
 28 35  1  0
 30 31  1  0
M  END
>  <PUBCHEM_COMPOUND_CID>  (1) 
23646370

>  <PUBCHEM_COMPOUND_CANONICALIZED>  (1) 
1

>  <PUBCHEM_CACTVS_COMPLEXITY>  (1) 
772

>  <PUBCHEM_CACTVS_HBOND_ACCEPTOR>  (1) 
9

>  <PUBCHEM_CACTVS_HBOND_DONOR>  (1) 
6

>  <PUBCHEM_CACTVS_ROTATABLE_BOND>  (1) 
15

>  <PUBCHEM_CACTVS_SUBSKEYS>  (1) 
AAADcfB7uABgAAAAAAAAAAAAAAAAAAAAAAAwAAAAAAAAAAABAAAAHgQQCAAADSzF2AayDoLABgyIAiHSGAACAAAgIBAIiIGOCIgKZjKikTOVcAAk1hGYmAeYyPCOoAADAAAYAABAAAYAADAAAAAAAAAAAA==

>  <PUBCHEM_IUPAC_OPENEYE_NAME>  (1) 
methyl (2S)-2-[[(2R)-2-[[(2S)-2-[[(2R)-2-amino-3-sulfanyl-propanoyl]amino]-3-methyl-butanoyl]amino]-3-(4-hydroxy-2,3-dimethyl-phenyl)propanoyl]amino]-4-methylsulfanyl-butanoate

>  <PUBCHEM_IUPAC_CAS_NAME>  (1) 
(2S)-2-[[(2R)-2-[[(2S)-2-[[(2R)-2-amino-3-mercapto-1-oxopropyl]amino]-3-methyl-1-oxobutyl]amino]-3-(4-hydroxy-2,3-dimethylphenyl)-1-oxopropyl]amino]-4-(methylthio)butanoic acid methyl ester

>  <PUBCHEM_IUPAC_NAME_MARKUP>  (1) 
methyl (2<I>S</I>)-2-[[(2<I>R</I>)-2-[[(2<I>S</I>)-2-[[(2<I>R</I>)-2-amino-3-sulfanylpropanoyl]amino]-3-methylbutanoyl]amino]-3-(4-hydroxy-2,3-dimethylphenyl)propanoyl]amino]-4-methylsulfanylbutanoate

>  <PUBCHEM_IUPAC_NAME>  (1) 
methyl (2S)-2-[[(2R)-2-[[(2S)-2-[[(2R)-2-amino-3-sulfanylpropanoyl]amino]-3-methylbutanoyl]amino]-3-(4-hydroxy-2,3-dimethylphenyl)propanoyl]amino]-4-methylsulfanylbutanoate

>  <PUBCHEM_IUPAC_SYSTEMATIC_NAME>  (1) 
methyl (2S)-2-[[(2R)-2-[[(2S)-2-[[(2R)-2-azanyl-3-sulfanyl-propanoyl]amino]-3-methyl-butanoyl]amino]-3-(2,3-dimethyl-4-oxidanyl-phenyl)propanoyl]amino]-4-methylsulfanyl-butanoate

>  <PUBCHEM_IUPAC_TRADITIONAL_NAME>  (1) 
(2S)-2-[[(2R)-2-[[(2S)-2-[[(2R)-2-amino-3-mercapto-propanoyl]amino]-3-methyl-butanoyl]amino]-3-(4-hydroxy-2,3-dimethyl-phenyl)propanoyl]amino]-4-(methylthio)butyric acid methyl ester

>  <PUBCHEM_IUPAC_INCHI>  (1) 
InChI=1S/C25H40N4O6S2/c1-13(2)21(29-22(31)17(26)12-36)24(33)28-19(11-16-7-8-20(30)15(4)14(16)3)23(32)27-18(9-10-37-6)25(34)35-5/h7-8,13,17-19,21,30,36H,9-12,26H2,1-6H3,(H,27,32)(H,28,33)(H,29,31)/t17-,18-,19+,21-/m0/s1

>  <PUBCHEM_IUPAC_INCHIKEY>  (1) 
AGJSNMGHAVDLRQ-HUUJSLGLSA-N

>  <PUBCHEM_XLOGP3_AA>  (1) 
2.3

>  <PUBCHEM_EXACT_MASS>  (1) 
556.23892736

>  <PUBCHEM_MOLECULAR_FORMULA>  (1) 
C25H40N4O6S2

>  <PUBCHEM_MOLECULAR_WEIGHT>  (1) 
556.7

>  <PUBCHEM_OPENEYE_CAN_SMILES>  (1) 
CC1=C(C=CC(=C1C)O)CC(C(=O)NC(CCSC)C(=O)OC)NC(=O)C(C(C)C)NC(=O)C(CS)N

>  <PUBCHEM_OPENEYE_ISO_SMILES>  (1) 
CC1=C(C=CC(=C1C)O)C[C@H](C(=O)N[C@@H](CCSC)C(=O)OC)NC(=O)[C@H](C(C)C)NC(=O)[C@H](CS)N

>  <PUBCHEM_CACTVS_TPSA>  (1) 
186

>  <PUBCHEM_MONOISOTOPIC_WEIGHT>  (1) 
556.23892736

>  <PUBCHEM_TOTAL_CHARGE>  (1) 
0

>  <PUBCHEM_HEAVY_ATOM_COUNT>  (1) 
37

>  <PUBCHEM_ATOM_DEF_STEREO_COUNT>  (1) 
4

>  <PUBCHEM_ATOM_UDEF_STEREO_COUNT>  (1) 
0

>  <PUBCHEM_BOND_DEF_STEREO_COUNT>  (1) 
0

>  <PUBCHEM_BOND_UDEF_STEREO_COUNT>  (1) 
0

>  <PUBCHEM_ISOTOPIC_ATOM_COUNT>  (1) 
0

>  <PUBCHEM_COMPONENT_COUNT>  (1) 
1

>  <PUBCHEM_CACTVS_TAUTO_COUNT>  (1) 
-1

>  <PUBCHEM_COORDINATE_TYPE>  (1) 
1
5
255

>  <PUBCHEM_BONDANNOTATIONS>  (1) 
13  10  5
23  11  6
28  12  6
18  22  8
18  24  8
22  27  8
24  31  8
27  30  8
30  31  8
15  9  5

$$$$
