54676868
     RDKit          2D

 23 23  0  0  1  0  0  0  0  0999 V2000
    8.9282    1.7500    0.0000 Cl  0  0  0  0  0  0  0  0  0  0  0  0
    8.9282    3.7500    0.0000 Cl  0  0  0  0  0  0  0  0  0  0  0  0
    7.1962   -1.2500    0.0000 O   0  0  0  0  0  0  0  0  0  0  0  0
    4.5981    0.2500    0.0000 O   0  0  0  0  0  0  0  0  0  0  0  0
    2.8660   -0.7500    0.0000 O   0  0  0  0  0  0  0  0  0  0  0  0
    6.3301   -2.7500    0.0000 O   0  0  0  0  0  0  0  0  0  0  0  0
    2.8660   -2.7500    0.0000 O   0  0  0  0  0  0  0  0  0  0  0  0
    4.5981   -2.7500    0.0000 N   0  0  0  0  0  0  0  0  0  0  0  0
    7.1962    1.7500    0.0000 C   0  0  0  0  0  0  0  0  0  0  0  0
    7.1962    0.7500    0.0000 C   0  0  0  0  0  0  0  0  0  0  0  0
    6.3301    0.2500    0.0000 C   0  0  0  0  0  0  0  0  0  0  0  0
    8.0622    2.2500    0.0000 C   0  0  0  0  0  0  0  0  0  0  0  0
    6.3301    2.2500    0.0000 C   0  0  0  0  0  0  0  0  0  0  0  0
    6.3301   -0.7500    0.0000 C   0  0  0  0  0  0  0  0  0  0  0  0
    5.4641    0.7500    0.0000 C   0  0  0  0  0  0  0  0  0  0  0  0
    8.0622    3.2500    0.0000 C   0  0  0  0  0  0  0  0  0  0  0  0
    5.4641   -1.2500    0.0000 C   0  0  0  0  0  0  0  0  0  0  0  0
    4.5981   -0.7500    0.0000 C   0  0  0  0  0  0  0  0  0  0  0  0
    5.4641   -2.2500    0.0000 C   0  0  0  0  0  0  0  0  0  0  0  0
    3.7320   -1.2500    0.0000 C   0  0  0  0  0  0  0  0  0  0  0  0
    3.7320   -2.2500    0.0000 C   0  0  0  0  0  0  0  0  0  0  0  0
    2.0000   -1.2500    0.0000 C   0  0  0  0  0  0  0  0  0  0  0  0
    2.8660   -3.7500    0.0000 C   0  0  0  0  0  0  0  0  0  0  0  0
 12  1  1  6
  2 16  1  0
  3 14  2  0
  4 18  1  0
  5 20  1  0
  5 22  1  0
  6 19  2  0
  7 21  1  0
  7 23  1  0
  8 19  1  0
  8 21  1  0
  9 10  1  0
  9 12  1  0
  9 13  1  6
 10 11  1  0
 11 14  1  0
 11 15  1  1
 12 16  1  0
 14 17  1  0
 17 18  2  0
 17 19  1  0
 18 20  1  0
 20 21  2  0
M  END
>  <PUBCHEM_COMPOUND_CID>  (1) 
54676868

>  <PUBCHEM_COMPOUND_CANONICALIZED>  (1) 
1

>  <PUBCHEM_CACTVS_COMPLEXITY>  (1) 
544

>  <PUBCHEM_CACTVS_HBOND_ACCEPTOR>  (1) 
5

>  <PUBCHEM_CACTVS_HBOND_DONOR>  (1) 
2

>  <PUBCHEM_CACTVS_ROTATABLE_BOND>  (1) 
8

>  <PUBCHEM_CACTVS_SUBSKEYS>  (1) 
AAADceByOAAGAAAAAAAAAAAAAAAAAAAAAAAgAAAAAAAAAAAAAAAAHgIQCAAADQeBgEICAALABgCIAoFQUACACAAgIAAACEEAAkkJBBoJoAAEEAAAgAALsQMYiMCOAAAAAAAAAAAAAAAAAAAAAAAAAAAAAA==

>  <PUBCHEM_IUPAC_OPENEYE_NAME>  (1) 
3-[(2S,4S,5R)-5,6-dichloro-2,4-dimethyl-hexanoyl]-4-hydroxy-5,6-dimethoxy-1H-pyridin-2-one

>  <PUBCHEM_IUPAC_CAS_NAME>  (1) 
3-[(2S,4S,5R)-5,6-dichloro-2,4-dimethyl-1-oxohexyl]-4-hydroxy-5,6-dimethoxy-1H-pyridin-2-one

>  <PUBCHEM_IUPAC_NAME_MARKUP>  (1) 
3-[(2<I>S</I>,4<I>S</I>,5<I>R</I>)-5,6-dichloro-2,4-dimethylhexanoyl]-4-hydroxy-5,6-dimethoxy-1<I>H</I>-pyridin-2-one

>  <PUBCHEM_IUPAC_NAME>  (1) 
3-[(2S,4S,5R)-5,6-dichloro-2,4-dimethylhexanoyl]-4-hydroxy-5,6-dimethoxy-1H-pyridin-2-one

>  <PUBCHEM_IUPAC_SYSTEMATIC_NAME>  (1) 
3-[(2S,4S,5R)-5,6-bis(chloranyl)-2,4-dimethyl-hexanoyl]-5,6-dimethoxy-4-oxidanyl-1H-pyridin-2-one

>  <PUBCHEM_IUPAC_TRADITIONAL_NAME>  (1) 
3-[(2S,4S,5R)-5,6-dichloro-2,4-dimethyl-hexanoyl]-4-hydroxy-5,6-dimethoxy-2-pyridone

>  <PUBCHEM_IUPAC_INCHI>  (1) 
InChI=1S/C15H21Cl2NO5/c1-7(9(17)6-16)5-8(2)11(19)10-12(20)13(22-3)15(23-4)18-14(10)21/h7-9H,5-6H2,1-4H3,(H2,18,20,21)/t7-,8-,9-/m0/s1

>  <PUBCHEM_IUPAC_INCHIKEY>  (1) 
OVULNOOPECCZRG-CIUDSAMLSA-N

>  <PUBCHEM_XLOGP3_AA>  (1) 
2.8

>  <PUBCHEM_EXACT_MASS>  (1) 
365.0796782

>  <PUBCHEM_MOLECULAR_FORMULA>  (1) 
C15H21Cl2NO5

>  <PUBCHEM_MOLECULAR_WEIGHT>  (1) 
366.2

>  <PUBCHEM_OPENEYE_CAN_SMILES>  (1) 
CC(CC(C)C(=O)C1=C(C(=C(NC1=O)OC)OC)O)C(CCl)Cl

>  <PUBCHEM_OPENEYE_ISO_SMILES>  (1) 
C[C@@H](C[C@H](C)C(=O)C1=C(C(=C(NC1=O)OC)OC)O)[C@H](CCl)Cl

>  <PUBCHEM_CACTVS_TPSA>  (1) 
84.9

>  <PUBCHEM_MONOISOTOPIC_WEIGHT>  (1) 
365.0796782

>  <PUBCHEM_TOTAL_CHARGE>  (1) 
0

>  <PUBCHEM_HEAVY_ATOM_COUNT>  (1) 
23

>  <PUBCHEM_ATOM_DEF_STEREO_COUNT>  (1) 
3

>  <PUBCHEM_ATOM_UDEF_STEREO_COUNT>  (1) 
0

>  <PUBCHEM_BOND_DEF_STEREO_COUNT>  (1) 
0

>  <PUBCHEM_BOND_UDEF_STEREO_COUNT>  (1) 
0

>  <PUBCHEM_ISOTOPIC_ATOM_COUNT>  (1) 
0

>  <PUBCHEM_COMPONENT_COUNT>  (1) 
1

>  <PUBCHEM_CACTVS_TAUTO_COUNT>  (1) 
-1

>  <PUBCHEM_COORDINATE_TYPE>  (1) 
1
5
255

>  <PUBCHEM_BONDANNOTATIONS>  (1) 
12  1  6
11  15  5
17  18  8
17  19  8
18  20  8
20  21  8
8  19  8
8  21  8
9  13  6

$$$$
