159645
     RDKit          2D

 28 30  0  0  0  0  0  0  0  0999 V2000
    6.5851    0.0000    0.0000 Sn  0  0  0  0  0  4  0  0  0  0  0  0
    5.5851    0.0000    0.0000 S   0  0  0  0  0  0  0  0  0  0  0  0
    4.9874    1.2817    0.0000 S   0  0  0  0  0  0  0  0  0  0  0  0
    4.6454    0.3420    0.0000 P   0  0  0  0  0  0  0  0  0  0  0  0
    4.3034   -0.5977    0.0000 O   0  0  0  0  0  0  0  0  0  0  0  0
    3.7057    0.6840    0.0000 O   0  0  0  0  0  0  0  0  0  0  0  0
    6.5851   -1.0000    0.0000 C   0  0  0  0  0  0  0  0  0  0  0  0
    6.5851    1.0000    0.0000 C   0  0  0  0  0  0  0  0  0  0  0  0
    7.5851    0.0000    0.0000 C   0  0  0  0  0  0  0  0  0  0  0  0
    5.7191   -1.5000    0.0000 C   0  0  0  0  0  0  0  0  0  0  0  0
    7.4512    1.5000    0.0000 C   0  0  0  0  0  0  0  0  0  0  0  0
    8.0851   -0.8660    0.0000 C   0  0  0  0  0  0  0  0  0  0  0  0
    7.4512   -1.5000    0.0000 C   0  0  0  0  0  0  0  0  0  0  0  0
    5.7191    1.5000    0.0000 C   0  0  0  0  0  0  0  0  0  0  0  0
    8.0851    0.8660    0.0000 C   0  0  0  0  0  0  0  0  0  0  0  0
    5.7191   -2.5000    0.0000 C   0  0  0  0  0  0  0  0  0  0  0  0
    7.4512    2.5000    0.0000 C   0  0  0  0  0  0  0  0  0  0  0  0
    9.0851   -0.8660    0.0000 C   0  0  0  0  0  0  0  0  0  0  0  0
    7.4512   -2.5000    0.0000 C   0  0  0  0  0  0  0  0  0  0  0  0
    5.7191    2.5000    0.0000 C   0  0  0  0  0  0  0  0  0  0  0  0
    9.0851    0.8660    0.0000 C   0  0  0  0  0  0  0  0  0  0  0  0
    6.5851   -3.0000    0.0000 C   0  0  0  0  0  0  0  0  0  0  0  0
    6.5851    3.0000    0.0000 C   0  0  0  0  0  0  0  0  0  0  0  0
    9.5851    0.0000    0.0000 C   0  0  0  0  0  0  0  0  0  0  0  0
    3.3186   -0.7713    0.0000 C   0  0  0  0  0  0  0  0  0  0  0  0
    2.9397    0.0413    0.0000 C   0  0  0  0  0  0  0  0  0  0  0  0
    2.9766   -1.7110    0.0000 C   0  0  0  0  0  0  0  0  0  0  0  0
    2.0000    0.3833    0.0000 C   0  0  0  0  0  0  0  0  0  0  0  0
  1  2  1  0
  1  7  1  0
  1  8  1  0
  1  9  1  0
  2  4  1  0
  3  4  2  0
  4  5  1  0
  4  6  1  0
  5 25  1  0
  6 26  1  0
  7 10  2  0
  7 13  1  0
  8 11  2  0
  8 14  1  0
  9 12  2  0
  9 15  1  0
 10 16  1  0
 11 17  1  0
 12 18  1  0
 13 19  2  0
 14 20  2  0
 15 21  2  0
 16 22  2  0
 17 23  2  0
 18 24  2  0
 19 22  1  0
 20 23  1  0
 21 24  1  0
 25 27  1  0
 26 28  1  0
M  END
>  <PUBCHEM_COMPOUND_CID>  (1) 
159645

>  <PUBCHEM_COMPOUND_CANONICALIZED>  (1) 
1

>  <PUBCHEM_CACTVS_COMPLEXITY>  (1) 
445

>  <PUBCHEM_CACTVS_HBOND_ACCEPTOR>  (1) 
4

>  <PUBCHEM_CACTVS_HBOND_DONOR>  (1) 
0

>  <PUBCHEM_CACTVS_ROTATABLE_BOND>  (1) 
9

>  <PUBCHEM_CACTVS_SUBSKEYS>  (1) 
AAADceB4MAJgAAAAAACAAAAAAAAAAAAAAAAwYMAAAAAAAAABUAAAGgAAACAACACgkAIyAIAAARCAACBCAAACAAAgAAAIiAAAAIgIICKAERCAIAAggAAIiAcAAAAAAAAAAAAAAAAAAAAAAAAAAAAAAAAAAA==

>  <PUBCHEM_IUPAC_OPENEYE_NAME>  (1) 
diethoxy-thioxo-triphenylstannylsulfanyl-lambda5-phosphane

>  <PUBCHEM_IUPAC_CAS_NAME>  (1) 
diethoxy-sulfanylidene-(triphenylstannylthio)phosphorane

>  <PUBCHEM_IUPAC_NAME_MARKUP>  (1) 
diethoxy-sulfanylidene-triphenylstannylsulfanyl-&lambda;<SUP>5</SUP>-phosphane

>  <PUBCHEM_IUPAC_NAME>  (1) 
diethoxy-sulfanylidene-triphenylstannylsulfanyl-lambda5-phosphane

>  <PUBCHEM_IUPAC_SYSTEMATIC_NAME>  (1) 
diethoxy-sulfanylidene-triphenylstannylsulfanyl-lambda5-phosphane

>  <PUBCHEM_IUPAC_TRADITIONAL_NAME>  (1) 
diethoxy-thioxo-(triphenylstannylthio)phosphorane

>  <PUBCHEM_IUPAC_INCHI>  (1) 
InChI=1S/3C6H5.C4H11O2PS2.Sn/c3*1-2-4-6-5-3-1;1-3-5-7(8,9)6-4-2;/h3*1-5H;3-4H2,1-2H3,(H,8,9);/q;;;;+1/p-1

>  <PUBCHEM_IUPAC_INCHIKEY>  (1) 
DFRKYUCCSIWZQP-UHFFFAOYSA-M

>  <PUBCHEM_EXACT_MASS>  (1) 
536.005562

>  <PUBCHEM_MOLECULAR_FORMULA>  (1) 
C22H25O2PS2Sn

>  <PUBCHEM_MOLECULAR_WEIGHT>  (1) 
535.3

>  <PUBCHEM_OPENEYE_CAN_SMILES>  (1) 
CCOP(=S)(OCC)S[Sn](C1=CC=CC=C1)(C2=CC=CC=C2)C3=CC=CC=C3

>  <PUBCHEM_OPENEYE_ISO_SMILES>  (1) 
CCOP(=S)(OCC)S[Sn](C1=CC=CC=C1)(C2=CC=CC=C2)C3=CC=CC=C3

>  <PUBCHEM_CACTVS_TPSA>  (1) 
75.8

>  <PUBCHEM_MONOISOTOPIC_WEIGHT>  (1) 
536.005562

>  <PUBCHEM_TOTAL_CHARGE>  (1) 
0

>  <PUBCHEM_HEAVY_ATOM_COUNT>  (1) 
28

>  <PUBCHEM_ATOM_DEF_STEREO_COUNT>  (1) 
0

>  <PUBCHEM_ATOM_UDEF_STEREO_COUNT>  (1) 
0

>  <PUBCHEM_BOND_DEF_STEREO_COUNT>  (1) 
0

>  <PUBCHEM_BOND_UDEF_STEREO_COUNT>  (1) 
0

>  <PUBCHEM_ISOTOPIC_ATOM_COUNT>  (1) 
0

>  <PUBCHEM_COMPONENT_COUNT>  (1) 
1

>  <PUBCHEM_CACTVS_TAUTO_COUNT>  (1) 
-1

>  <PUBCHEM_COORDINATE_TYPE>  (1) 
1
5
255

>  <PUBCHEM_BONDANNOTATIONS>  (1) 
10  16  8
11  17  8
12  18  8
13  19  8
14  20  8
15  21  8
16  22  8
17  23  8
18  24  8
19  22  8
20  23  8
21  24  8
7  10  8
7  13  8
8  11  8
8  14  8
9  12  8
9  15  8

$$$$
