90238060
     RDKit          2D

 52 53  0  0  1  0  0  0  0  0999 V2000
   17.2594   -6.6550    0.0000 Cl  0  0  0  0  0  0  0  0  0  0  0  0
    6.8671    4.3450    0.0000 O   0  0  0  0  0  0  0  0  0  0  0  0
    6.0010    6.8450    0.0000 O   0  0  0  0  0  0  0  0  0  0  0  0
    5.1350    4.3450    0.0000 O   0  0  0  0  0  0  0  0  0  0  0  0
    4.2690    6.8450    0.0000 O   0  0  0  0  0  0  0  0  0  0  0  0
    2.5369    5.8450    0.0000 O   0  0  0  0  0  0  0  0  0  0  0  0
   13.7953    7.3450    0.0000 O   0  0  0  0  0  0  0  0  0  0  0  0
   14.6613   -3.1550    0.0000 O   0  0  0  0  0  0  0  0  0  0  0  0
    8.5991    5.3450    0.0000 N   0  0  0  0  0  0  0  0  0  0  0  0
   12.0632    5.3450    0.0000 N   0  0  0  0  0  0  0  0  0  0  0  0
   12.0632    7.3450    0.0000 N   0  0  0  0  0  0  0  0  0  0  0  0
   15.5273   -1.6550    0.0000 N   0  0  0  0  0  0  0  0  0  0  0  0
   16.3933   -3.1550    0.0000 N   0  0  0  0  0  0  0  0  0  0  0  0
   17.2594   -1.6550    0.0000 N   0  0  0  0  0  0  0  0  0  0  0  0
   16.3933   -5.1550    0.0000 N   0  0  0  0  0  0  0  0  0  0  0  0
   14.6613   -6.1550    0.0000 N   0  0  0  0  0  0  0  0  0  0  0  0
   13.7953   -4.6550    0.0000 N   0  0  0  0  0  0  0  0  0  0  0  0
   15.5273   -7.6550    0.0000 N   0  0  0  0  0  0  0  0  0  0  0  0
    7.7331    5.8450    0.0000 C   0  0  0  0  0  0  0  0  0  0  0  0
    6.8671    5.3450    0.0000 C   0  0  0  0  0  0  0  0  0  0  0  0
    6.0010    5.8450    0.0000 C   0  0  0  0  0  0  0  0  0  0  0  0
    8.5991    4.3450    0.0000 C   0  0  0  0  0  0  0  0  0  0  0  0
    9.4651    5.8450    0.0000 C   0  0  0  0  0  0  0  0  0  0  0  0
    5.1350    5.3450    0.0000 C   0  0  0  0  0  0  0  0  0  0  0  0
    7.7331    3.8450    0.0000 C   0  0  0  0  0  0  0  0  0  0  0  0
   10.3312    5.3450    0.0000 C   0  0  0  0  0  0  0  0  0  0  0  0
    7.7331    2.8450    0.0000 C   0  0  0  0  0  0  0  0  0  0  0  0
    4.2690    5.8450    0.0000 C   0  0  0  0  0  0  0  0  0  0  0  0
   11.1972    5.8450    0.0000 C   0  0  0  0  0  0  0  0  0  0  0  0
    6.8671    2.3450    0.0000 C   0  0  0  0  0  0  0  0  0  0  0  0
   12.9292    5.8450    0.0000 C   0  0  0  0  0  0  0  0  0  0  0  0
    3.4030    5.3450    0.0000 C   0  0  0  0  0  0  0  0  0  0  0  0
    6.8671    1.3450    0.0000 C   0  0  0  0  0  0  0  0  0  0  0  0
   13.7953    5.3450    0.0000 C   0  0  0  0  0  0  0  0  0  0  0  0
   13.7953    4.3450    0.0000 C   0  0  0  0  0  0  0  0  0  0  0  0
   12.9292    6.8450    0.0000 C   0  0  0  0  0  0  0  0  0  0  0  0
    6.0010    0.8450    0.0000 C   0  0  0  0  0  0  0  0  0  0  0  0
   12.9292    3.8450    0.0000 C   0  0  0  0  0  0  0  0  0  0  0  0
   14.6613    3.8450    0.0000 C   0  0  0  0  0  0  0  0  0  0  0  0
   13.7953    2.3450    0.0000 C   0  0  0  0  0  0  0  0  0  0  0  0
   13.7953    1.3450    0.0000 C   0  0  0  0  0  0  0  0  0  0  0  0
   12.9292    2.8450    0.0000 C   0  0  0  0  0  0  0  0  0  0  0  0
   14.6613    2.8450    0.0000 C   0  0  0  0  0  0  0  0  0  0  0  0
   14.6613    0.8450    0.0000 C   0  0  0  0  0  0  0  0  0  0  0  0
   14.6613   -0.1550    0.0000 C   0  0  0  0  0  0  0  0  0  0  0  0
   15.5273   -0.6550    0.0000 C   0  0  0  0  0  0  0  0  0  0  0  0
   16.3933   -2.1550    0.0000 C   0  0  0  0  0  0  0  0  0  0  0  0
   15.5273   -3.6550    0.0000 C   0  0  0  0  0  0  0  0  0  0  0  0
   15.5273   -4.6550    0.0000 C   0  0  0  0  0  0  0  0  0  0  0  0
   14.6613   -5.1550    0.0000 C   0  0  0  0  0  0  0  0  0  0  0  0
   16.3933   -6.1550    0.0000 C   0  0  0  0  0  0  0  0  0  0  0  0
   15.5273   -6.6550    0.0000 C   0  0  0  0  0  0  0  0  0  0  0  0
  1 51  1  0
 20  2  1  6
 21  3  1  6
 24  4  1  6
 28  5  1  1
  6 32  1  0
  7 36  2  0
  8 48  2  0
  9 19  1  0
  9 22  1  0
  9 23  1  0
 10 29  1  0
 31 10  1  0
 11 36  1  0
 12 46  1  0
 12 47  2  0
 13 47  1  0
 13 48  1  0
 14 47  1  0
 15 49  2  0
 15 51  1  0
 16 50  2  0
 16 52  1  0
 17 50  1  0
 18 52  1  0
 19 20  1  0
 20 21  1  0
 21 24  1  0
 22 25  1  0
 23 26  1  0
 24 28  1  0
 25 27  1  0
 26 29  1  0
 27 30  1  0
 28 32  1  0
 30 33  1  0
 31 34  1  6
 31 36  1  0
 33 37  1  0
 34 35  1  0
 35 38  2  0
 35 39  1  0
 38 42  1  0
 39 43  2  0
 40 41  1  0
 40 42  2  0
 40 43  1  0
 41 44  1  0
 44 45  1  0
 45 46  1  0
 48 49  1  0
 49 50  1  0
 51 52  2  0
M  END
>  <PUBCHEM_COMPOUND_CID>  (1) 
90238060

>  <PUBCHEM_COMPOUND_CANONICALIZED>  (1) 
1

>  <PUBCHEM_CACTVS_COMPLEXITY>  (1) 
1040

>  <PUBCHEM_CACTVS_HBOND_ACCEPTOR>  (1) 
14

>  <PUBCHEM_CACTVS_HBOND_DONOR>  (1) 
11

>  <PUBCHEM_CACTVS_ROTATABLE_BOND>  (1) 
26

>  <PUBCHEM_CACTVS_SUBSKEYS>  (1) 
AAADcfB/+AAEAAAAAAAAAAAAAAAAAAAAAAA8QAAAAAAAAAABwAAAHgIQCAAADD7hniYzsJPIEgCoAydydACCgC0nECAJmIGoVMiLcHrA2THUYIgnkQLZiGf4+MaOQAAAAAAAAACAAAAAAAAAAAAAAAAAAA==

>  <PUBCHEM_IUPAC_OPENEYE_NAME>  (1) 
3,5-diamino-N-[N'-[4-[4-[(2S)-3-amino-2-[3-[hexyl-[(2S,3R,4R,5R)-2,3,4,5,6-pentahydroxyhexyl]amino]propylamino]-3-oxo-propyl]phenyl]butyl]carbamimidoyl]-6-chloro-pyrazine-2-carboxamide

>  <PUBCHEM_IUPAC_CAS_NAME>  (1) 
3,5-diamino-N-[amino-[4-[4-[(2S)-3-amino-2-[3-[hexyl-[(2S,3R,4R,5R)-2,3,4,5,6-pentahydroxyhexyl]amino]propylamino]-3-oxopropyl]phenyl]butylimino]methyl]-6-chloro-2-pyrazinecarboxamide

>  <PUBCHEM_IUPAC_NAME_MARKUP>  (1) 
3,5-diamino-<I>N</I>-[<I>N</I>&apos;-[4-[4-[(2<I>S</I>)-3-amino-2-[3-[hexyl-[(2<I>S</I>,3<I>R</I>,4<I>R</I>,5<I>R</I>)-2,3,4,5,6-pentahydroxyhexyl]amino]propylamino]-3-oxopropyl]phenyl]butyl]carbamimidoyl]-6-chloropyrazine-2-carboxamide

>  <PUBCHEM_IUPAC_NAME>  (1) 
3,5-diamino-N-[N'-[4-[4-[(2S)-3-amino-2-[3-[hexyl-[(2S,3R,4R,5R)-2,3,4,5,6-pentahydroxyhexyl]amino]propylamino]-3-oxopropyl]phenyl]butyl]carbamimidoyl]-6-chloropyrazine-2-carboxamide

>  <PUBCHEM_IUPAC_SYSTEMATIC_NAME>  (1) 
3,5-bis(azanyl)-N-[N'-[4-[4-[(2S)-3-azanyl-2-[3-[hexyl-[(2S,3R,4R,5R)-2,3,4,5,6-pentakis(oxidanyl)hexyl]amino]propylamino]-3-oxidanylidene-propyl]phenyl]butyl]carbamimidoyl]-6-chloranyl-pyrazine-2-carboxamide

>  <PUBCHEM_IUPAC_TRADITIONAL_NAME>  (1) 
3,5-diamino-N-[N'-[4-[4-[(2S)-3-amino-2-[3-[hexyl-[(2S,3R,4R,5R)-2,3,4,5,6-pentahydroxyhexyl]amino]propylamino]-3-keto-propyl]phenyl]butyl]amidino]-6-chloro-pyrazinamide

>  <PUBCHEM_IUPAC_INCHI>  (1) 
InChI=1S/C34H57ClN10O7/c1-2-3-4-7-16-45(19-24(47)27(49)28(50)25(48)20-46)17-8-15-40-23(32(38)51)18-22-12-10-21(11-13-22)9-5-6-14-41-34(39)44-33(52)26-30(36)43-31(37)29(35)42-26/h10-13,23-25,27-28,40,46-50H,2-9,14-20H2,1H3,(H2,38,51)(H4,36,37,43)(H3,39,41,44,52)/t23-,24-,25+,27+,28+/m0/s1

>  <PUBCHEM_IUPAC_INCHIKEY>  (1) 
CMOYAJUMLZJGHB-WUCHXUMNSA-N

>  <PUBCHEM_XLOGP3_AA>  (1) 
1.1

>  <PUBCHEM_EXACT_MASS>  (1) 
752.4100219

>  <PUBCHEM_MOLECULAR_FORMULA>  (1) 
C34H57ClN10O7

>  <PUBCHEM_MOLECULAR_WEIGHT>  (1) 
753.3

>  <PUBCHEM_OPENEYE_CAN_SMILES>  (1) 
CCCCCCN(CCCNC(CC1=CC=C(C=C1)CCCCN=C(N)NC(=O)C2=C(N=C(C(=N2)Cl)N)N)C(=O)N)CC(C(C(C(CO)O)O)O)O

>  <PUBCHEM_OPENEYE_ISO_SMILES>  (1) 
CCCCCCN(CCCN[C@@H](CC1=CC=C(C=C1)CCCCN=C(N)NC(=O)C2=C(N=C(C(=N2)Cl)N)N)C(=O)N)C[C@@H]([C@H]([C@@H]([C@@H](CO)O)O)O)O

>  <PUBCHEM_CACTVS_TPSA>  (1) 
305

>  <PUBCHEM_MONOISOTOPIC_WEIGHT>  (1) 
752.4100219

>  <PUBCHEM_TOTAL_CHARGE>  (1) 
0

>  <PUBCHEM_HEAVY_ATOM_COUNT>  (1) 
52

>  <PUBCHEM_ATOM_DEF_STEREO_COUNT>  (1) 
5

>  <PUBCHEM_ATOM_UDEF_STEREO_COUNT>  (1) 
0

>  <PUBCHEM_BOND_DEF_STEREO_COUNT>  (1) 
0

>  <PUBCHEM_BOND_UDEF_STEREO_COUNT>  (1) 
0

>  <PUBCHEM_ISOTOPIC_ATOM_COUNT>  (1) 
0

>  <PUBCHEM_COMPONENT_COUNT>  (1) 
1

>  <PUBCHEM_CACTVS_TAUTO_COUNT>  (1) 
-1

>  <PUBCHEM_COORDINATE_TYPE>  (1) 
1
5
255

>  <PUBCHEM_BONDANNOTATIONS>  (1) 
31  10  6
15  49  8
15  51  8
16  50  8
16  52  8
20  2  6
21  3  6
35  38  8
35  39  8
38  42  8
39  43  8
24  4  6
40  42  8
40  43  8
49  50  8
28  5  5
51  52  8

$$$$
