54676867
     RDKit          2D

 22 22  0  0  1  0  0  0  0  0999 V2000
    8.0622    3.5000    0.0000 Cl  0  0  0  0  0  0  0  0  0  0  0  0
    7.1962   -1.0000    0.0000 O   0  0  0  0  0  0  0  0  0  0  0  0
    4.5981    0.5000    0.0000 O   0  0  0  0  0  0  0  0  0  0  0  0
    2.8660   -0.5000    0.0000 O   0  0  0  0  0  0  0  0  0  0  0  0
    6.3301   -2.5000    0.0000 O   0  0  0  0  0  0  0  0  0  0  0  0
    2.8660   -2.5000    0.0000 O   0  0  0  0  0  0  0  0  0  0  0  0
    4.5981   -2.5000    0.0000 N   0  0  0  0  0  0  0  0  0  0  0  0
    7.1962    2.0000    0.0000 C   0  0  0  0  0  0  0  0  0  0  0  0
    7.1962    1.0000    0.0000 C   0  0  0  0  0  0  0  0  0  0  0  0
    6.3301    0.5000    0.0000 C   0  0  0  0  0  0  0  0  0  0  0  0
    8.0622    2.5000    0.0000 C   0  0  0  0  0  0  0  0  0  0  0  0
    6.3301    2.5000    0.0000 C   0  0  0  0  0  0  0  0  0  0  0  0
    6.3301   -0.5000    0.0000 C   0  0  0  0  0  0  0  0  0  0  0  0
    5.4641    1.0000    0.0000 C   0  0  0  0  0  0  0  0  0  0  0  0
    8.9282    2.0000    0.0000 C   0  0  0  0  0  0  0  0  0  0  0  0
    5.4641   -1.0000    0.0000 C   0  0  0  0  0  0  0  0  0  0  0  0
    4.5981   -0.5000    0.0000 C   0  0  0  0  0  0  0  0  0  0  0  0
    5.4641   -2.0000    0.0000 C   0  0  0  0  0  0  0  0  0  0  0  0
    3.7320   -1.0000    0.0000 C   0  0  0  0  0  0  0  0  0  0  0  0
    3.7320   -2.0000    0.0000 C   0  0  0  0  0  0  0  0  0  0  0  0
    2.0000   -1.0000    0.0000 C   0  0  0  0  0  0  0  0  0  0  0  0
    2.8660   -3.5000    0.0000 C   0  0  0  0  0  0  0  0  0  0  0  0
 11  1  1  0
  2 13  2  0
  3 17  1  0
  4 19  1  0
  4 21  1  0
  5 18  2  0
  6 20  1  0
  6 22  1  0
  7 18  1  0
  7 20  1  0
  8  9  1  0
  8 11  1  0
  8 12  1  6
  9 10  1  0
 10 13  1  0
 10 14  1  1
 11 15  1  1
 13 16  1  0
 16 17  2  0
 16 18  1  0
 17 19  1  0
 19 20  2  0
M  END
>  <PUBCHEM_COMPOUND_CID>  (1) 
54676867

>  <PUBCHEM_COMPOUND_CANONICALIZED>  (1) 
1

>  <PUBCHEM_CACTVS_COMPLEXITY>  (1) 
526

>  <PUBCHEM_CACTVS_HBOND_ACCEPTOR>  (1) 
5

>  <PUBCHEM_CACTVS_HBOND_DONOR>  (1) 
2

>  <PUBCHEM_CACTVS_ROTATABLE_BOND>  (1) 
7

>  <PUBCHEM_CACTVS_SUBSKEYS>  (1) 
AAADceByOAAEAAAAAAAAAAAAAAAAAAAAAAAgAAAAAAAAAAAAAAAAHgIQCAAADQeBgEICAALABgCIAoFQUACACAAgIAAACAEAAkkJBBoJoAAEEAAAgAALsQMYiMCOAAAAAAAAAAAAAAAAAAAAAAAAAAAAAA==

>  <PUBCHEM_IUPAC_OPENEYE_NAME>  (1) 
3-[(2S,4S,5S)-5-chloro-2,4-dimethyl-hexanoyl]-4-hydroxy-5,6-dimethoxy-1H-pyridin-2-one

>  <PUBCHEM_IUPAC_CAS_NAME>  (1) 
3-[(2S,4S,5S)-5-chloro-2,4-dimethyl-1-oxohexyl]-4-hydroxy-5,6-dimethoxy-1H-pyridin-2-one

>  <PUBCHEM_IUPAC_NAME_MARKUP>  (1) 
3-[(2<I>S</I>,4<I>S</I>,5<I>S</I>)-5-chloro-2,4-dimethylhexanoyl]-4-hydroxy-5,6-dimethoxy-1<I>H</I>-pyridin-2-one

>  <PUBCHEM_IUPAC_NAME>  (1) 
3-[(2S,4S,5S)-5-chloro-2,4-dimethylhexanoyl]-4-hydroxy-5,6-dimethoxy-1H-pyridin-2-one

>  <PUBCHEM_IUPAC_SYSTEMATIC_NAME>  (1) 
3-[(2S,4S,5S)-5-chloranyl-2,4-dimethyl-hexanoyl]-5,6-dimethoxy-4-oxidanyl-1H-pyridin-2-one

>  <PUBCHEM_IUPAC_TRADITIONAL_NAME>  (1) 
3-[(2S,4S,5S)-5-chloro-2,4-dimethyl-hexanoyl]-4-hydroxy-5,6-dimethoxy-2-pyridone

>  <PUBCHEM_IUPAC_INCHI>  (1) 
InChI=1S/C15H22ClNO5/c1-7(9(3)16)6-8(2)11(18)10-12(19)13(21-4)15(22-5)17-14(10)20/h7-9H,6H2,1-5H3,(H2,17,19,20)/t7-,8-,9-/m0/s1

>  <PUBCHEM_IUPAC_INCHIKEY>  (1) 
LDPADGWFJFHTLH-CIUDSAMLSA-N

>  <PUBCHEM_XLOGP3_AA>  (1) 
2.6

>  <PUBCHEM_EXACT_MASS>  (1) 
331.1186505

>  <PUBCHEM_MOLECULAR_FORMULA>  (1) 
C15H22ClNO5

>  <PUBCHEM_MOLECULAR_WEIGHT>  (1) 
331.79

>  <PUBCHEM_OPENEYE_CAN_SMILES>  (1) 
CC(CC(C)C(=O)C1=C(C(=C(NC1=O)OC)OC)O)C(C)Cl

>  <PUBCHEM_OPENEYE_ISO_SMILES>  (1) 
C[C@@H](C[C@H](C)C(=O)C1=C(C(=C(NC1=O)OC)OC)O)[C@H](C)Cl

>  <PUBCHEM_CACTVS_TPSA>  (1) 
84.9

>  <PUBCHEM_MONOISOTOPIC_WEIGHT>  (1) 
331.1186505

>  <PUBCHEM_TOTAL_CHARGE>  (1) 
0

>  <PUBCHEM_HEAVY_ATOM_COUNT>  (1) 
22

>  <PUBCHEM_ATOM_DEF_STEREO_COUNT>  (1) 
3

>  <PUBCHEM_ATOM_UDEF_STEREO_COUNT>  (1) 
0

>  <PUBCHEM_BOND_DEF_STEREO_COUNT>  (1) 
0

>  <PUBCHEM_BOND_UDEF_STEREO_COUNT>  (1) 
0

>  <PUBCHEM_ISOTOPIC_ATOM_COUNT>  (1) 
0

>  <PUBCHEM_COMPONENT_COUNT>  (1) 
1

>  <PUBCHEM_CACTVS_TAUTO_COUNT>  (1) 
-1

>  <PUBCHEM_COORDINATE_TYPE>  (1) 
1
5
255

>  <PUBCHEM_BONDANNOTATIONS>  (1) 
11  1  5
10  14  5
16  17  8
16  18  8
17  19  8
19  20  8
7  18  8
7  20  8
8  12  6

$$$$
