Nirmatrelvir
  -OEChem-07102407342D

 67 69  0     1  0  0  0  0  0999 V2000
    2.0000   -3.7770    0.0000 F   0  0  0  0  0  0  0  0  0  0  0  0
    3.0000   -4.7770    0.0000 F   0  0  0  0  0  0  0  0  0  0  0  0
    3.0000   -2.7770    0.0000 F   0  0  0  0  0  0  0  0  0  0  0  0
    6.3006   -0.0769    0.0000 O   0  0  0  0  0  0  0  0  0  0  0  0
    5.5000   -1.1789    0.0000 O   0  0  0  0  0  0  0  0  0  0  0  0
    4.5000   -4.6430    0.0000 O   0  0  0  0  0  0  0  0  0  0  0  0
    6.2389    2.8248    0.0000 O   0  0  0  0  0  0  0  0  0  0  0  0
    7.0000   -2.0449    0.0000 N   0  0  0  0  0  0  0  0  0  0  0  0
    7.9479    0.4583    0.0000 N   0  0  0  0  0  0  0  0  0  0  0  0
    4.5000   -2.9110    0.0000 N   0  0  0  0  0  0  0  0  0  0  0  0
    7.0479    4.4126    0.0000 N   0  0  0  0  0  0  0  0  0  0  0  0
    5.6826    1.8252    0.0000 N   0  0  0  0  0  0  0  0  0  0  0  0
    8.5388   -1.5449    0.0000 C   0  0  1  0  0  0  0  0  0  0  0  0
    9.4054   -2.0449    0.0000 C   0  0  0  0  0  0  0  0  0  0  0  0
    8.5388   -2.5449    0.0000 C   0  0  1  0  0  0  0  0  0  0  0  0
    7.5878   -1.2359    0.0000 C   0  0  1  0  0  0  0  0  0  0  0  0
    7.5878   -2.8540    0.0000 C   0  0  0  0  0  0  0  0  0  0  0  0
    9.9054   -2.9110    0.0000 C   0  0  0  0  0  0  0  0  0  0  0  0
    9.9054   -1.1789    0.0000 C   0  0  0  0  0  0  0  0  0  0  0  0
    7.2788   -0.2849    0.0000 C   0  0  0  0  0  0  0  0  0  0  0  0
    6.0000   -2.0449    0.0000 C   0  0  0  0  0  0  0  0  0  0  0  0
    5.5000   -2.9110    0.0000 C   0  0  2  0  0  0  0  0  0  0  0  0
    6.0000   -3.7770    0.0000 C   0  0  0  0  0  0  0  0  0  0  0  0
    7.6389    1.4093    0.0000 C   0  0  1  0  0  0  0  0  0  0  0  0
    6.5000   -4.6430    0.0000 C   0  0  0  0  0  0  0  0  0  0  0  0
    5.1340   -4.2770    0.0000 C   0  0  0  0  0  0  0  0  0  0  0  0
    6.8660   -3.2770    0.0000 C   0  0  0  0  0  0  0  0  0  0  0  0
    8.3080    2.1525    0.0000 C   0  0  0  0  0  0  0  0  0  0  0  0
    7.9990    3.1035    0.0000 C   0  0  2  0  0  0  0  0  0  0  0  0
    4.0000   -3.7770    0.0000 C   0  0  0  0  0  0  0  0  0  0  0  0
    6.6607    1.6172    0.0000 C   0  0  0  0  0  0  0  0  0  0  0  0
    8.5868    3.9126    0.0000 C   0  0  0  0  0  0  0  0  0  0  0  0
    7.0479    3.4126    0.0000 C   0  0  0  0  0  0  0  0  0  0  0  0
    3.0000   -3.7770    0.0000 C   0  0  0  0  0  0  0  0  0  0  0  0
    7.9990    4.7216    0.0000 C   0  0  0  0  0  0  0  0  0  0  0  0
    8.8845   -0.7684    0.0000 H   0  0  0  0  0  0  0  0  0  0  0  0
    8.8845   -3.3215    0.0000 H   0  0  0  0  0  0  0  0  0  0  0  0
    6.9754   -1.1389    0.0000 H   0  0  0  0  0  0  0  0  0  0  0  0
    7.0508   -3.1640    0.0000 H   0  0  0  0  0  0  0  0  0  0  0  0
    7.8400   -3.4204    0.0000 H   0  0  0  0  0  0  0  0  0  0  0  0
    9.3684   -3.2210    0.0000 H   0  0  0  0  0  0  0  0  0  0  0  0
   10.2154   -3.4479    0.0000 H   0  0  0  0  0  0  0  0  0  0  0  0
   10.4423   -2.6010    0.0000 H   0  0  0  0  0  0  0  0  0  0  0  0
   10.4423   -1.4889    0.0000 H   0  0  0  0  0  0  0  0  0  0  0  0
   10.2154   -0.6420    0.0000 H   0  0  0  0  0  0  0  0  0  0  0  0
    9.3684   -0.8689    0.0000 H   0  0  0  0  0  0  0  0  0  0  0  0
    5.1900   -2.3740    0.0000 H   0  0  0  0  0  0  0  0  0  0  0  0
    8.5544    0.3294    0.0000 H   0  0  0  0  0  0  0  0  0  0  0  0
    7.2240    0.9486    0.0000 H   0  0  0  0  0  0  0  0  0  0  0  0
    4.1900   -2.3740    0.0000 H   0  0  0  0  0  0  0  0  0  0  0  0
    5.9631   -4.9530    0.0000 H   0  0  0  0  0  0  0  0  0  0  0  0
    6.8100   -5.1800    0.0000 H   0  0  0  0  0  0  0  0  0  0  0  0
    7.0369   -4.3330    0.0000 H   0  0  0  0  0  0  0  0  0  0  0  0
    4.8240   -3.7400    0.0000 H   0  0  0  0  0  0  0  0  0  0  0  0
    4.5970   -4.5870    0.0000 H   0  0  0  0  0  0  0  0  0  0  0  0
    5.4440   -4.8139    0.0000 H   0  0  0  0  0  0  0  0  0  0  0  0
    7.1760   -3.8139    0.0000 H   0  0  0  0  0  0  0  0  0  0  0  0
    7.4030   -2.9670    0.0000 H   0  0  0  0  0  0  0  0  0  0  0  0
    6.5560   -2.7400    0.0000 H   0  0  0  0  0  0  0  0  0  0  0  0
    8.6897    1.6639    0.0000 H   0  0  0  0  0  0  0  0  0  0  0  0
    8.8554    2.4436    0.0000 H   0  0  0  0  0  0  0  0  0  0  0  0
    8.6114    3.0066    0.0000 H   0  0  0  0  0  0  0  0  0  0  0  0
    9.0475    3.4977    0.0000 H   0  0  0  0  0  0  0  0  0  0  0  0
    9.0475    4.3274    0.0000 H   0  0  0  0  0  0  0  0  0  0  0  0
    8.5359    5.0316    0.0000 H   0  0  0  0  0  0  0  0  0  0  0  0
    7.7468    5.2880    0.0000 H   0  0  0  0  0  0  0  0  0  0  0  0
    6.5464    4.7770    0.0000 H   0  0  0  0  0  0  0  0  0  0  0  0
  1 34  1  0  0  0  0
  2 34  1  0  0  0  0
  3 34  1  0  0  0  0
  4 20  2  0  0  0  0
  5 21  2  0  0  0  0
  6 30  2  0  0  0  0
  7 33  2  0  0  0  0
  8 16  1  0  0  0  0
  8 17  1  0  0  0  0
  8 21  1  0  0  0  0
  9 20  1  0  0  0  0
 24  9  1  6  0  0  0
  9 48  1  0  0  0  0
 22 10  1  6  0  0  0
 10 30  1  0  0  0  0
 10 50  1  0  0  0  0
 11 33  1  0  0  0  0
 11 35  1  0  0  0  0
 11 67  1  0  0  0  0
 12 31  3  0  0  0  0
 13 14  1  0  0  0  0
 13 15  1  0  0  0  0
 13 16  1  0  0  0  0
 13 36  1  6  0  0  0
 14 15  1  0  0  0  0
 14 18  1  0  0  0  0
 14 19  1  0  0  0  0
 15 17  1  0  0  0  0
 15 37  1  6  0  0  0
 16 20  1  6  0  0  0
 16 38  1  0  0  0  0
 17 39  1  0  0  0  0
 17 40  1  0  0  0  0
 18 41  1  0  0  0  0
 18 42  1  0  0  0  0
 18 43  1  0  0  0  0
 19 44  1  0  0  0  0
 19 45  1  0  0  0  0
 19 46  1  0  0  0  0
 21 22  1  0  0  0  0
 22 23  1  0  0  0  0
 22 47  1  0  0  0  0
 23 25  1  0  0  0  0
 23 26  1  0  0  0  0
 23 27  1  0  0  0  0
 24 28  1  0  0  0  0
 24 31  1  0  0  0  0
 24 49  1  0  0  0  0
 25 51  1  0  0  0  0
 25 52  1  0  0  0  0
 25 53  1  0  0  0  0
 26 54  1  0  0  0  0
 26 55  1  0  0  0  0
 26 56  1  0  0  0  0
 27 57  1  0  0  0  0
 27 58  1  0  0  0  0
 27 59  1  0  0  0  0
 29 28  1  1  0  0  0
 28 60  1  0  0  0  0
 28 61  1  0  0  0  0
 29 32  1  0  0  0  0
 29 33  1  0  0  0  0
 29 62  1  0  0  0  0
 30 34  1  0  0  0  0
 32 35  1  0  0  0  0
 32 63  1  0  0  0  0
 32 64  1  0  0  0  0
 35 65  1  0  0  0  0
 35 66  1  0  0  0  0
M  END
> <PUBCHEM_COMPOUND_CID>
155903259

> <PUBCHEM_COMPOUND_CANONICALIZED>
1

> <PUBCHEM_CACTVS_COMPLEXITY>
964

> <PUBCHEM_CACTVS_HBOND_ACCEPTOR>
8

> <PUBCHEM_CACTVS_HBOND_DONOR>
3

> <PUBCHEM_CACTVS_ROTATABLE_BOND>
7

> <PUBCHEM_CACTVS_SUBSKEYS>
AAADcfB7uYAAAAAAAAAAAAAAGAAAAWLAAAAsAAAAAAAAAAAAAAAAHwAQAAAADyjBgBQCAAPAAAAYBAEQEAAAAAAAAAAAAIGIAAAAwBIAgCAUAAAAFgCAAAkcCQAPgAAAAAAAAAAAAAAAAAAAAAAAAAAAAA==

> <PUBCHEM_IUPAC_OPENEYE_NAME>
(1R,2S,5S)-N-[(1S)-1-cyano-2-[(3S)-2-oxopyrrolidin-3-yl]ethyl]-3-[(2S)-3,3-dimethyl-2-[(2,2,2-trifluoroacetyl)amino]butanoyl]-6,6-dimethyl-3-azabicyclo[3.1.0]hexane-2-carboxamide

> <PUBCHEM_IUPAC_CAS_NAME>
(1R,2S,5S)-N-[(1S)-1-cyano-2-[(3S)-2-oxo-3-pyrrolidinyl]ethyl]-3-[(2S)-3,3-dimethyl-1-oxo-2-[(2,2,2-trifluoro-1-oxoethyl)amino]butyl]-6,6-dimethyl-3-azabicyclo[3.1.0]hexane-2-carboxamide

> <PUBCHEM_IUPAC_NAME_MARKUP>
(1<I>R</I>,2<I>S</I>,5<I>S</I>)-<I>N</I>-[(1<I>S</I>)-1-cyano-2-[(3<I>S</I>)-2-oxopyrrolidin-3-yl]ethyl]-3-[(2<I>S</I>)-3,3-dimethyl-2-[(2,2,2-trifluoroacetyl)amino]butanoyl]-6,6-dimethyl-3-azabicyclo[3.1.0]hexane-2-carboxamide

> <PUBCHEM_IUPAC_NAME>
(1R,2S,5S)-N-[(1S)-1-cyano-2-[(3S)-2-oxopyrrolidin-3-yl]ethyl]-3-[(2S)-3,3-dimethyl-2-[(2,2,2-trifluoroacetyl)amino]butanoyl]-6,6-dimethyl-3-azabicyclo[3.1.0]hexane-2-carboxamide

> <PUBCHEM_IUPAC_SYSTEMATIC_NAME>
(1R,2S,5S)-N-[(1S)-1-cyano-2-[(3S)-2-oxidanylidenepyrrolidin-3-yl]ethyl]-3-[(2S)-3,3-dimethyl-2-[2,2,2-tris(fluoranyl)ethanoylamino]butanoyl]-6,6-dimethyl-3-azabicyclo[3.1.0]hexane-2-carboxamide

> <PUBCHEM_IUPAC_TRADITIONAL_NAME>
(1R,2S,5S)-N-[(1S)-1-cyano-2-[(3S)-2-ketopyrrolidin-3-yl]ethyl]-3-[(2S)-3,3-dimethyl-2-[(2,2,2-trifluoroacetyl)amino]butanoyl]-6,6-dimethyl-3-azabicyclo[3.1.0]hexane-2-carboxamide

> <PUBCHEM_IUPAC_INCHI>
InChI=1S/C23H32F3N5O4/c1-21(2,3)16(30-20(35)23(24,25)26)19(34)31-10-13-14(22(13,4)5)15(31)18(33)29-12(9-27)8-11-6-7-28-17(11)32/h11-16H,6-8,10H2,1-5H3,(H,28,32)(H,29,33)(H,30,35)/t11-,12-,13-,14-,15-,16+/m0/s1

> <PUBCHEM_IUPAC_INCHIKEY>
LIENCHBZNNMNKG-OJFNHCPVSA-N

> <PUBCHEM_XLOGP3_AA>
2.2

> <PUBCHEM_EXACT_MASS>
499.24063901

> <PUBCHEM_MOLECULAR_FORMULA>
C23H32F3N5O4

> <PUBCHEM_MOLECULAR_WEIGHT>
499.5

> <PUBCHEM_REFERENCE_STANDARDIZATION>
Bypass - this structure was created from CID 155903259

> <PUBCHEM_OPENEYE_CAN_SMILES>
CC1(C2C1C(N(C2)C(=O)C(C(C)(C)C)NC(=O)C(F)(F)F)C(=O)NC(CC3CCNC3=O)C#N)C

> <PUBCHEM_OPENEYE_ISO_SMILES>
CC1([C@@H]2[C@H]1[C@H](N(C2)C(=O)[C@H](C(C)(C)C)NC(=O)C(F)(F)F)C(=O)N[C@@H](C[C@@H]3CCNC3=O)C#N)C

> <PUBCHEM_CACTVS_TPSA>
131

> <PUBCHEM_MONOISOTOPIC_WEIGHT>
499.24063901

> <PUBCHEM_TOTAL_CHARGE>
0

> <PUBCHEM_HEAVY_ATOM_COUNT>
35

> <PUBCHEM_ATOM_DEF_STEREO_COUNT>
6

> <PUBCHEM_ATOM_UDEF_STEREO_COUNT>
0

> <PUBCHEM_BOND_DEF_STEREO_COUNT>
0

> <PUBCHEM_BOND_UDEF_STEREO_COUNT>
0

> <PUBCHEM_ISOTOPIC_ATOM_COUNT>
0

> <PUBCHEM_COMPONENT_COUNT>
1

> <PUBCHEM_CACTVS_TAUTO_COUNT>
-1

> <PUBCHEM_COORDINATE_TYPE>
1
5
255

> <PUBCHEM_BONDANNOTATIONS>
22  10  6
13  36  6
15  37  6
16  20  6
29  28  5
24  9  6

$$$$
