RG2833 (RGFP109)
  -OEChem-12182004323D

 50 51  0     0  0  0  0  0  0999 V2000
   -2.6921    1.9789    1.7057 O   0  0  0  0  0  0  0  0  0  0  0  0
   -0.0151   -1.8836   -2.0156 O   0  0  0  0  0  0  0  0  0  0  0  0
   -0.7837   -2.6712    0.0265 N   0  0  0  0  0  0  0  0  0  0  0  0
   -1.8447    1.3946   -0.4043 N   0  0  0  0  0  0  0  0  0  0  0  0
   -0.1195    1.1587   -2.6621 N   0  0  0  0  0  0  0  0  0  0  0  0
   -3.3647   -1.5804    1.0551 C   0  0  0  0  0  0  0  0  0  0  0  0
   -3.1466   -2.1022   -0.3685 C   0  0  0  0  0  0  0  0  0  0  0  0
   -4.4288   -0.4783    1.0833 C   0  0  0  0  0  0  0  0  0  0  0  0
   -2.0504   -3.1598   -0.4431 C   0  0  0  0  0  0  0  0  0  0  0  0
   -4.0639    0.7044    0.1869 C   0  0  0  0  0  0  0  0  0  0  0  0
   -2.7947    1.4326    0.6125 C   0  0  0  0  0  0  0  0  0  0  0  0
    0.1448   -2.0635   -0.8112 C   0  0  0  0  0  0  0  0  0  0  0  0
    1.4183   -1.6368   -0.1765 C   0  0  0  0  0  0  0  0  0  0  0  0
   -0.5453    1.9552   -0.3919 C   0  0  0  0  0  0  0  0  0  0  0  0
    0.2982    1.8395   -1.4968 C   0  0  0  0  0  0  0  0  0  0  0  0
    2.5843   -1.5545   -0.9377 C   0  0  0  0  0  0  0  0  0  0  0  0
    1.4481   -1.3189    1.1813 C   0  0  0  0  0  0  0  0  0  0  0  0
   -0.1124    2.6323    0.7482 C   0  0  0  0  0  0  0  0  0  0  0  0
    3.8097   -0.8368    1.0167 C   0  0  0  0  0  0  0  0  0  0  0  0
    3.7799   -1.1545   -0.3412 C   0  0  0  0  0  0  0  0  0  0  0  0
    2.6437   -0.9190    1.7780 C   0  0  0  0  0  0  0  0  0  0  0  0
    1.5748    2.4007   -1.4615 C   0  0  0  0  0  0  0  0  0  0  0  0
    1.1641    3.1938    0.7834 C   0  0  0  0  0  0  0  0  0  0  0  0
    2.0076    3.0779   -0.3214 C   0  0  0  0  0  0  0  0  0  0  0  0
    5.0885   -0.4092    1.6542 C   0  0  0  0  0  0  0  0  0  0  0  0
   -3.6866   -2.4045    1.7029 H   0  0  0  0  0  0  0  0  0  0  0  0
   -2.4296   -1.1939    1.4756 H   0  0  0  0  0  0  0  0  0  0  0  0
   -4.0819   -2.5277   -0.7511 H   0  0  0  0  0  0  0  0  0  0  0  0
   -2.8602   -1.2937   -1.0462 H   0  0  0  0  0  0  0  0  0  0  0  0
   -4.5511   -0.1357    2.1178 H   0  0  0  0  0  0  0  0  0  0  0  0
   -5.3946   -0.8880    0.7649 H   0  0  0  0  0  0  0  0  0  0  0  0
   -1.9432   -3.5091   -1.4759 H   0  0  0  0  0  0  0  0  0  0  0  0
   -2.3155   -4.0240    0.1754 H   0  0  0  0  0  0  0  0  0  0  0  0
   -4.8690    1.4480    0.2626 H   0  0  0  0  0  0  0  0  0  0  0  0
   -4.0485    0.4229   -0.8698 H   0  0  0  0  0  0  0  0  0  0  0  0
   -0.5634   -2.8434    1.0014 H   0  0  0  0  0  0  0  0  0  0  0  0
   -2.1001    0.9117   -1.2588 H   0  0  0  0  0  0  0  0  0  0  0  0
    2.5819   -1.8005   -1.9963 H   0  0  0  0  0  0  0  0  0  0  0  0
    0.5570   -1.3366    1.8017 H   0  0  0  0  0  0  0  0  0  0  0  0
   -0.6971    2.7647    1.6464 H   0  0  0  0  0  0  0  0  0  0  0  0
    4.6814   -1.0927   -0.9451 H   0  0  0  0  0  0  0  0  0  0  0  0
    2.6526   -0.6643    2.8345 H   0  0  0  0  0  0  0  0  0  0  0  0
    2.2432    2.3166   -2.3146 H   0  0  0  0  0  0  0  0  0  0  0  0
    1.5035    3.7197    1.6712 H   0  0  0  0  0  0  0  0  0  0  0  0
    3.0021    3.5134   -0.2932 H   0  0  0  0  0  0  0  0  0  0  0  0
    5.1958    0.6780    1.5871 H   0  0  0  0  0  0  0  0  0  0  0  0
    5.1208   -0.7007    2.7095 H   0  0  0  0  0  0  0  0  0  0  0  0
    5.9496   -0.8780    1.1659 H   0  0  0  0  0  0  0  0  0  0  0  0
    0.5168    1.0814   -3.4451 H   0  0  0  0  0  0  0  0  0  0  0  0
   -1.0244    0.7171   -2.7236 H   0  0  0  0  0  0  0  0  0  0  0  0
  1 11  2  0  0  0  0
  2 12  2  0  0  0  0
  3  9  1  0  0  0  0
  3 12  1  0  0  0  0
  3 36  1  0  0  0  0
  4 11  1  0  0  0  0
  4 14  1  0  0  0  0
  4 37  1  0  0  0  0
  5 15  1  0  0  0  0
  5 49  1  0  0  0  0
  5 50  1  0  0  0  0
  6  7  1  0  0  0  0
  6  8  1  0  0  0  0
  6 26  1  0  0  0  0
  6 27  1  0  0  0  0
  7  9  1  0  0  0  0
  7 28  1  0  0  0  0
  7 29  1  0  0  0  0
  8 10  1  0  0  0  0
  8 30  1  0  0  0  0
  8 31  1  0  0  0  0
  9 32  1  0  0  0  0
  9 33  1  0  0  0  0
 10 11  1  0  0  0  0
 10 34  1  0  0  0  0
 10 35  1  0  0  0  0
 12 13  1  0  0  0  0
 13 16  2  0  0  0  0
 13 17  1  0  0  0  0
 14 15  1  0  0  0  0
 14 18  2  0  0  0  0
 15 22  2  0  0  0  0
 16 20  1  0  0  0  0
 16 38  1  0  0  0  0
 17 21  2  0  0  0  0
 17 39  1  0  0  0  0
 18 23  1  0  0  0  0
 18 40  1  0  0  0  0
 19 20  2  0  0  0  0
 19 21  1  0  0  0  0
 19 25  1  0  0  0  0
 20 41  1  0  0  0  0
 21 42  1  0  0  0  0
 22 24  1  0  0  0  0
 22 43  1  0  0  0  0
 23 24  2  0  0  0  0
 23 44  1  0  0  0  0
 24 45  1  0  0  0  0
 25 46  1  0  0  0  0
 25 47  1  0  0  0  0
 25 48  1  0  0  0  0
M  END
> <PUBCHEM_COMPOUND_CID>
56654642

> <PUBCHEM_CONFORMER_RMSD>
1.2

> <PUBCHEM_CONFORMER_DIVERSEORDER>
1
42
31
20
94
96
108
115
68
110
64
65
11
8
67
37
73
4
55
61
9
109
87
38
30
51
66
12
7
36
95
28
44
48
92
93
47
46
80
63
15
62
76
43
85
113
89
49
116
81
5
6
70
117
13
97
104
79
3
77
112
14
69
18
78
100
53
84
106
58
22
2
75
114
29
45
98
118
83
59
27
50
16
60
82
32
19
54
105
39
103
57
111
26
35
40
56
34
90
107
91
33
52
41
86
23
102
25
17
72
101
88
71
21
10
99
74
24

> <PUBCHEM_MMFF94_PARTIAL_CHARGES>
34
1 -0.57
10 0.06
11 0.57
12 0.54
13 0.09
14 0.12
15 0.1
16 -0.15
17 -0.15
18 -0.15
19 -0.14
2 -0.57
20 -0.15
21 -0.15
22 -0.15
23 -0.15
24 -0.15
25 0.14
3 -0.73
36 0.37
37 0.37
38 0.15
39 0.15
4 -0.55
40 0.15
41 0.15
42 0.15
43 0.15
44 0.15
45 0.15
49 0.4
5 -0.9
50 0.4
9 0.3

> <PUBCHEM_EFFECTIVE_ROTOR_COUNT>
10

> <PUBCHEM_PHARMACOPHORE_FEATURES>
9
1 1 acceptor
1 2 acceptor
1 3 donor
1 4 donor
1 5 cation
1 5 donor
4 6 7 8 10 hydrophobe
6 13 16 17 19 20 21 rings
6 14 15 18 22 23 24 rings

> <PUBCHEM_HEAVY_ATOM_COUNT>
25

> <PUBCHEM_ATOM_DEF_STEREO_COUNT>
0

> <PUBCHEM_ATOM_UDEF_STEREO_COUNT>
0

> <PUBCHEM_BOND_DEF_STEREO_COUNT>
0

> <PUBCHEM_BOND_UDEF_STEREO_COUNT>
0

> <PUBCHEM_ISOTOPIC_ATOM_COUNT>
0

> <PUBCHEM_COMPONENT_COUNT>
1

> <PUBCHEM_CACTVS_TAUTO_COUNT>
15

> <PUBCHEM_CONFORMER_ID>
03607B3200000001

> <PUBCHEM_MMFF94_ENERGY>
67.0336

> <PUBCHEM_FEATURE_SELFOVERLAP>
45.673

> <PUBCHEM_SHAPE_FINGERPRINT>
10165383 225 16466738269192303868
1100329 8 18411140259837080931
11513181 2 17988086724168544310
12422481 6 18120909932438560560
12553582 1 18192449471494367009
12633257 1 18411707586478059211
13140716 1 18338243790251883651
133893 2 17823432658727303549
14081887 123 18195245512098673578
14713325 29 11527366286070581877
14787075 74 17967822647912141608
17492 54 18042994049788993068
18336668 15 18261387888388120536
19930381 70 14734236577282130569
20600515 1 18335428936730231407
20691752 17 17313938752834569961
20905425 154 18051708933706821959
21421861 104 18266485211731640929
23419403 2 17903601362970169054
35225 105 17903320789736539514
3524813 1 17988077768961317067
5282940 2 18044949114475289308
539174 4 17831005093875786654
57091435 65 18124039193537606907
5895379 119 17773339948442717267
6287921 2 18059583455306040238
7064713 232 18271531892371370873
7471813 234 17911216623333246287
9925002 15 17699271480513080791

> <PUBCHEM_SHAPE_MULTIPOLES>
487.81
7.28
4.25
1.83
0.27
1.46
0.45
-2.84
-3.92
0.19
0.57
-0.63
0.24
-0.88

> <PUBCHEM_SHAPE_SELFOVERLAP>
1014.851

> <PUBCHEM_SHAPE_VOLUME>
276.2

> <PUBCHEM_COORDINATE_TYPE>
2
5
10

$$$$
