3109
     RDKit          2D

 16 17  0  0  0  0  0  0  0  0999 V2000
    5.4641   -0.2500    0.0000 S   0  0  0  0  0  0  0  0  0  0  0  0
    4.5981    0.2500    0.0000 S   0  0  0  0  0  0  0  0  0  0  0  0
    7.1962   -1.2500    0.0000 O   0  0  0  0  0  0  0  0  0  0  0  0
    4.5981   -1.7500    0.0000 O   0  0  0  0  0  0  0  0  0  0  0  0
    7.1962   -0.2500    0.0000 N   0  0  0  0  0  0  0  0  0  0  0  0
    3.7320   -1.2500    0.0000 N   0  0  0  0  0  0  0  0  0  0  0  0
    6.3301    0.2500    0.0000 C   0  0  0  0  0  0  0  0  0  0  0  0
    3.7320   -0.2500    0.0000 C   0  0  0  0  0  0  0  0  0  0  0  0
    6.3301    1.2500    0.0000 C   0  0  0  0  0  0  0  0  0  0  0  0
    2.8660    0.2500    0.0000 C   0  0  0  0  0  0  0  0  0  0  0  0
    8.0622    0.2500    0.0000 C   0  0  0  0  0  0  0  0  0  0  0  0
    2.8660   -1.7500    0.0000 C   0  0  0  0  0  0  0  0  0  0  0  0
    7.1962    1.7500    0.0000 C   0  0  0  0  0  0  0  0  0  0  0  0
    2.0000   -0.2500    0.0000 C   0  0  0  0  0  0  0  0  0  0  0  0
    8.0622    1.2500    0.0000 C   0  0  0  0  0  0  0  0  0  0  0  0
    2.0000   -1.2500    0.0000 C   0  0  0  0  0  0  0  0  0  0  0  0
  1  2  1  0
  1  7  1  0
  2  8  1  0
  3  5  1  0
  4  6  1  0
  5  7  2  0
  5 11  1  0
  6  8  2  0
  6 12  1  0
  7  9  1  0
  8 10  1  0
  9 13  2  0
 10 14  2  0
 11 15  2  0
 12 16  2  0
 13 15  1  0
 14 16  1  0
M  CHG  4   3  -1   4  -1   5   1   6   1
M  END
>  <PUBCHEM_COMPOUND_CID>  (1) 
3109

>  <PUBCHEM_COMPOUND_CANONICALIZED>  (1) 
1

>  <PUBCHEM_CACTVS_COMPLEXITY>  (1) 
199

>  <PUBCHEM_CACTVS_HBOND_ACCEPTOR>  (1) 
4

>  <PUBCHEM_CACTVS_HBOND_DONOR>  (1) 
0

>  <PUBCHEM_CACTVS_ROTATABLE_BOND>  (1) 
3

>  <PUBCHEM_CACTVS_SUBSKEYS>  (1) 
AAADccBzMABgAAAAAAAAAAAAAAAAAAAAAAAsWAAAAAAAAAAB4AAAHAQEAAAACADBUgQ8gZIYEACgADBnRACG0CAxAiAo2Dg4ZJoIIOLAkZGEIAhggADIyAYQAAAAAAAAAAAAAAAAAAAAAAAAAAAAAAAAAA==

>  <PUBCHEM_IUPAC_OPENEYE_NAME>  (1) 
1-oxido-2-[(1-oxidopyridin-1-ium-2-yl)disulfanyl]pyridin-1-ium

>  <PUBCHEM_IUPAC_CAS_NAME>  (1) 
1-oxido-2-[(1-oxido-2-pyridin-1-iumyl)disulfanyl]pyridin-1-ium

>  <PUBCHEM_IUPAC_NAME_MARKUP>  (1) 
1-oxido-2-[(1-oxidopyridin-1-ium-2-yl)disulfanyl]pyridin-1-ium

>  <PUBCHEM_IUPAC_NAME>  (1) 
1-oxido-2-[(1-oxidopyridin-1-ium-2-yl)disulfanyl]pyridin-1-ium

>  <PUBCHEM_IUPAC_SYSTEMATIC_NAME>  (1) 
1-oxidanidyl-2-[(1-oxidanidylpyridin-1-ium-2-yl)disulfanyl]pyridin-1-ium

>  <PUBCHEM_IUPAC_TRADITIONAL_NAME>  (1) 
1-oxido-2-[(1-oxidopyridin-1-ium-2-yl)disulfanyl]pyridin-1-ium

>  <PUBCHEM_IUPAC_INCHI>  (1) 
InChI=1S/C10H8N2O2S2/c13-11-7-3-1-5-9(11)15-16-10-6-2-4-8-12(10)14/h1-8H

>  <PUBCHEM_IUPAC_INCHIKEY>  (1) 
ZHDBTKPXEJDTTQ-UHFFFAOYSA-N

>  <PUBCHEM_XLOGP3_AA>  (1) 
0.6

>  <PUBCHEM_EXACT_MASS>  (1) 
252.00271985

>  <PUBCHEM_MOLECULAR_FORMULA>  (1) 
C10H8N2O2S2

>  <PUBCHEM_MOLECULAR_WEIGHT>  (1) 
252.3

>  <PUBCHEM_OPENEYE_CAN_SMILES>  (1) 
C1=CC=[N+](C(=C1)SSC2=CC=CC=[N+]2[O-])[O-]

>  <PUBCHEM_OPENEYE_ISO_SMILES>  (1) 
C1=CC=[N+](C(=C1)SSC2=CC=CC=[N+]2[O-])[O-]

>  <PUBCHEM_CACTVS_TPSA>  (1) 
102

>  <PUBCHEM_MONOISOTOPIC_WEIGHT>  (1) 
252.00271985

>  <PUBCHEM_TOTAL_CHARGE>  (1) 
0

>  <PUBCHEM_HEAVY_ATOM_COUNT>  (1) 
16

>  <PUBCHEM_ATOM_DEF_STEREO_COUNT>  (1) 
0

>  <PUBCHEM_ATOM_UDEF_STEREO_COUNT>  (1) 
0

>  <PUBCHEM_BOND_DEF_STEREO_COUNT>  (1) 
0

>  <PUBCHEM_BOND_UDEF_STEREO_COUNT>  (1) 
0

>  <PUBCHEM_ISOTOPIC_ATOM_COUNT>  (1) 
0

>  <PUBCHEM_COMPONENT_COUNT>  (1) 
1

>  <PUBCHEM_CACTVS_TAUTO_COUNT>  (1) 
-1

>  <PUBCHEM_COORDINATE_TYPE>  (1) 
1
5
255

>  <PUBCHEM_BONDANNOTATIONS>  (1) 
10  14  8
11  15  8
12  16  8
13  15  8
14  16  8
5  11  8
5  7  8
6  12  8
6  8  8
7  9  8
8  10  8
9  13  8

$$$$
