4477
     RDKit          2D

 21 22  0  0  0  0  0  0  0  0999 V2000
    2.0000   -0.5000    0.0000 Cl  0  0  0  0  0  0  0  0  0  0  0  0
    2.8660    4.0000    0.0000 Cl  0  0  0  0  0  0  0  0  0  0  0  0
    6.3301    2.0000    0.0000 O   0  0  0  0  0  0  0  0  0  0  0  0
    5.4641    0.5000    0.0000 O   0  0  0  0  0  0  0  0  0  0  0  0
    4.5981   -4.0000    0.0000 O   0  0  0  0  0  0  0  0  0  0  0  0
    2.8660   -4.0000    0.0000 O   0  0  0  0  0  0  0  0  0  0  0  0
    3.7320    0.5000    0.0000 N   0  0  0  0  0  0  0  0  0  0  0  0
    3.7320   -3.5000    0.0000 N   0  0  0  0  0  0  0  0  0  0  0  0
    3.7320   -0.5000    0.0000 C   0  0  0  0  0  0  0  0  0  0  0  0
    4.5981    2.0000    0.0000 C   0  0  0  0  0  0  0  0  0  0  0  0
    4.5981    1.0000    0.0000 C   0  0  0  0  0  0  0  0  0  0  0  0
    2.8660   -1.0000    0.0000 C   0  0  0  0  0  0  0  0  0  0  0  0
    4.5981   -1.0000    0.0000 C   0  0  0  0  0  0  0  0  0  0  0  0
    5.4641    2.5000    0.0000 C   0  0  0  0  0  0  0  0  0  0  0  0
    3.7320   -2.5000    0.0000 C   0  0  0  0  0  0  0  0  0  0  0  0
    3.7320    2.5000    0.0000 C   0  0  0  0  0  0  0  0  0  0  0  0
    2.8660   -2.0000    0.0000 C   0  0  0  0  0  0  0  0  0  0  0  0
    4.5981   -2.0000    0.0000 C   0  0  0  0  0  0  0  0  0  0  0  0
    5.4641    3.5000    0.0000 C   0  0  0  0  0  0  0  0  0  0  0  0
    3.7320    3.5000    0.0000 C   0  0  0  0  0  0  0  0  0  0  0  0
    4.5981    4.0000    0.0000 C   0  0  0  0  0  0  0  0  0  0  0  0
  1 12  1  0
  2 20  1  0
  3 14  1  0
  4 11  2  0
  5  8  1  0
  6  8  2  0
  7  9  1  0
  7 11  1  0
  8 15  1  0
  9 12  2  0
  9 13  1  0
 10 11  1  0
 10 14  2  0
 10 16  1  0
 12 17  1  0
 13 18  2  0
 14 19  1  0
 15 17  2  0
 15 18  1  0
 16 20  2  0
 19 21  2  0
 20 21  1  0
M  CHG  2   5  -1   8   1
M  END
>  <PUBCHEM_COMPOUND_CID>  (1) 
4477

>  <PUBCHEM_COMPOUND_CANONICALIZED>  (1) 
1

>  <PUBCHEM_CACTVS_COMPLEXITY>  (1) 
404

>  <PUBCHEM_CACTVS_HBOND_ACCEPTOR>  (1) 
4

>  <PUBCHEM_CACTVS_HBOND_DONOR>  (1) 
2

>  <PUBCHEM_CACTVS_ROTATABLE_BOND>  (1) 
2

>  <PUBCHEM_CACTVS_SUBSKEYS>  (1) 
AAADccBzOAAGAAAAAAAAAAAAAAAAAAAAAAAwYAAAAAAAAAABQAAAHgIUCAAADA6BmCAwxoLQQgCJAiVSUwCCAAAlJwAoiAEGbsoIJjbDl5PEcUhm9BHI2YeYyCCOACCAIAIIABAAQQBABBAAIAAAAAAAAA==

>  <PUBCHEM_IUPAC_OPENEYE_NAME>  (1) 
5-chloro-N-(2-chloro-4-nitro-phenyl)-2-hydroxy-benzamide

>  <PUBCHEM_IUPAC_CAS_NAME>  (1) 
5-chloro-N-(2-chloro-4-nitrophenyl)-2-hydroxybenzamide

>  <PUBCHEM_IUPAC_NAME_MARKUP>  (1) 
5-chloro-<I>N</I>-(2-chloro-4-nitrophenyl)-2-hydroxybenzamide

>  <PUBCHEM_IUPAC_NAME>  (1) 
5-chloro-N-(2-chloro-4-nitrophenyl)-2-hydroxybenzamide

>  <PUBCHEM_IUPAC_SYSTEMATIC_NAME>  (1) 
5-chloranyl-N-(2-chloranyl-4-nitro-phenyl)-2-oxidanyl-benzamide

>  <PUBCHEM_IUPAC_TRADITIONAL_NAME>  (1) 
5-chloro-N-(2-chloro-4-nitro-phenyl)-2-hydroxy-benzamide

>  <PUBCHEM_IUPAC_INCHI>  (1) 
InChI=1S/C13H8Cl2N2O4/c14-7-1-4-12(18)9(5-7)13(19)16-11-3-2-8(17(20)21)6-10(11)15/h1-6,18H,(H,16,19)

>  <PUBCHEM_IUPAC_INCHIKEY>  (1) 
RJMUSRYZPJIFPJ-UHFFFAOYSA-N

>  <PUBCHEM_XLOGP3_AA>  (1) 
4

>  <PUBCHEM_EXACT_MASS>  (1) 
325.9861121

>  <PUBCHEM_MOLECULAR_FORMULA>  (1) 
C13H8Cl2N2O4

>  <PUBCHEM_MOLECULAR_WEIGHT>  (1) 
327.12

>  <PUBCHEM_OPENEYE_CAN_SMILES>  (1) 
C1=CC(=C(C=C1[N+](=O)[O-])Cl)NC(=O)C2=C(C=CC(=C2)Cl)O

>  <PUBCHEM_OPENEYE_ISO_SMILES>  (1) 
C1=CC(=C(C=C1[N+](=O)[O-])Cl)NC(=O)C2=C(C=CC(=C2)Cl)O

>  <PUBCHEM_CACTVS_TPSA>  (1) 
95.2

>  <PUBCHEM_MONOISOTOPIC_WEIGHT>  (1) 
325.9861121

>  <PUBCHEM_TOTAL_CHARGE>  (1) 
0

>  <PUBCHEM_HEAVY_ATOM_COUNT>  (1) 
21

>  <PUBCHEM_ATOM_DEF_STEREO_COUNT>  (1) 
0

>  <PUBCHEM_ATOM_UDEF_STEREO_COUNT>  (1) 
0

>  <PUBCHEM_BOND_DEF_STEREO_COUNT>  (1) 
0

>  <PUBCHEM_BOND_UDEF_STEREO_COUNT>  (1) 
0

>  <PUBCHEM_ISOTOPIC_ATOM_COUNT>  (1) 
0

>  <PUBCHEM_COMPONENT_COUNT>  (1) 
1

>  <PUBCHEM_CACTVS_TAUTO_COUNT>  (1) 
-1

>  <PUBCHEM_COORDINATE_TYPE>  (1) 
1
5
255

>  <PUBCHEM_BONDANNOTATIONS>  (1) 
10  14  8
10  16  8
12  17  8
13  18  8
14  19  8
15  17  8
15  18  8
16  20  8
19  21  8
20  21  8
9  12  8
9  13  8

$$$$
