155903259
     RDKit          2D

 35 37  0  0  1  0  0  0  0  0999 V2000
    2.0000   -3.7770    0.0000 F   0  0  0  0  0  0  0  0  0  0  0  0
    3.0000   -4.7770    0.0000 F   0  0  0  0  0  0  0  0  0  0  0  0
    3.0000   -2.7770    0.0000 F   0  0  0  0  0  0  0  0  0  0  0  0
    6.3006   -0.0769    0.0000 O   0  0  0  0  0  0  0  0  0  0  0  0
    5.5000   -1.1789    0.0000 O   0  0  0  0  0  0  0  0  0  0  0  0
    4.5000   -4.6430    0.0000 O   0  0  0  0  0  0  0  0  0  0  0  0
    6.2389    2.8248    0.0000 O   0  0  0  0  0  0  0  0  0  0  0  0
    7.0000   -2.0449    0.0000 N   0  0  0  0  0  0  0  0  0  0  0  0
    7.9479    0.4583    0.0000 N   0  0  0  0  0  0  0  0  0  0  0  0
    4.5000   -2.9110    0.0000 N   0  0  0  0  0  0  0  0  0  0  0  0
    7.0479    4.4126    0.0000 N   0  0  0  0  0  0  0  0  0  0  0  0
    5.6826    1.8252    0.0000 N   0  0  0  0  0  0  0  0  0  0  0  0
    8.5388   -1.5449    0.0000 C   0  0  0  0  0  0  0  0  0  0  0  0
    9.4054   -2.0449    0.0000 C   0  0  0  0  0  0  0  0  0  0  0  0
    8.5388   -2.5449    0.0000 C   0  0  0  0  0  0  0  0  0  0  0  0
    7.5878   -1.2359    0.0000 C   0  0  0  0  0  0  0  0  0  0  0  0
    7.5878   -2.8540    0.0000 C   0  0  0  0  0  0  0  0  0  0  0  0
    9.9054   -2.9110    0.0000 C   0  0  0  0  0  0  0  0  0  0  0  0
    9.9054   -1.1789    0.0000 C   0  0  0  0  0  0  0  0  0  0  0  0
    7.2788   -0.2849    0.0000 C   0  0  0  0  0  0  0  0  0  0  0  0
    6.0000   -2.0449    0.0000 C   0  0  0  0  0  0  0  0  0  0  0  0
    5.5000   -2.9110    0.0000 C   0  0  0  0  0  0  0  0  0  0  0  0
    6.0000   -3.7770    0.0000 C   0  0  0  0  0  0  0  0  0  0  0  0
    7.6389    1.4093    0.0000 C   0  0  0  0  0  0  0  0  0  0  0  0
    6.5000   -4.6430    0.0000 C   0  0  0  0  0  0  0  0  0  0  0  0
    5.1340   -4.2770    0.0000 C   0  0  0  0  0  0  0  0  0  0  0  0
    6.8660   -3.2770    0.0000 C   0  0  0  0  0  0  0  0  0  0  0  0
    8.3080    2.1525    0.0000 C   0  0  0  0  0  0  0  0  0  0  0  0
    7.9990    3.1035    0.0000 C   0  0  0  0  0  0  0  0  0  0  0  0
    4.0000   -3.7770    0.0000 C   0  0  0  0  0  0  0  0  0  0  0  0
    6.6607    1.6172    0.0000 C   0  0  0  0  0  0  0  0  0  0  0  0
    8.5868    3.9126    0.0000 C   0  0  0  0  0  0  0  0  0  0  0  0
    7.0479    3.4126    0.0000 C   0  0  0  0  0  0  0  0  0  0  0  0
    3.0000   -3.7770    0.0000 C   0  0  0  0  0  0  0  0  0  0  0  0
    7.9990    4.7216    0.0000 C   0  0  0  0  0  0  0  0  0  0  0  0
  1 34  1  0
  2 34  1  0
  3 34  1  0
  4 20  2  0
  5 21  2  0
  6 30  2  0
  7 33  2  0
  8 16  1  0
  8 17  1  0
  8 21  1  0
  9 20  1  0
 24  9  1  0
 22 10  1  6
 10 30  1  0
 11 33  1  0
 11 35  1  0
 12 31  3  0
 13 14  1  1
 13 15  1  0
 13 16  1  0
 14 15  1  0
 14 18  1  0
 14 19  1  0
 15 17  1  1
 16 20  1  6
 21 22  1  0
 22 23  1  0
 23 25  1  0
 23 26  1  0
 23 27  1  0
 24 28  1  6
 24 31  1  0
 29 28  1  1
 29 32  1  0
 29 33  1  0
 30 34  1  0
 32 35  1  0
M  END
>  <PUBCHEM_COMPOUND_CID>  (1) 
155903259

>  <PUBCHEM_COMPOUND_CANONICALIZED>  (1) 
1

>  <PUBCHEM_CACTVS_COMPLEXITY>  (1) 
964

>  <PUBCHEM_CACTVS_HBOND_ACCEPTOR>  (1) 
8

>  <PUBCHEM_CACTVS_HBOND_DONOR>  (1) 
3

>  <PUBCHEM_CACTVS_ROTATABLE_BOND>  (1) 
7

>  <PUBCHEM_CACTVS_SUBSKEYS>  (1) 
AAADcfB7uYAAAAAAAAAAAAAAGAAAAWLAAAAsAAAAAAAAAAAAAAAAHwAQAAAADyjBgBQCAAPAAAAYBAEQEAAAAAAAAAAAAIGIAAAAwBIAgCAUAAAAFgCAAAkcCQAPgAAAAAAAAAAAAAAAAAAAAAAAAAAAAA==

>  <PUBCHEM_IUPAC_OPENEYE_NAME>  (1) 
(1R,2S,5S)-N-[(1S)-1-cyano-2-[(3S)-2-oxopyrrolidin-3-yl]ethyl]-3-[(2S)-3,3-dimethyl-2-[(2,2,2-trifluoroacetyl)amino]butanoyl]-6,6-dimethyl-3-azabicyclo[3.1.0]hexane-2-carboxamide

>  <PUBCHEM_IUPAC_CAS_NAME>  (1) 
(1R,2S,5S)-N-[(1S)-1-cyano-2-[(3S)-2-oxo-3-pyrrolidinyl]ethyl]-3-[(2S)-3,3-dimethyl-1-oxo-2-[(2,2,2-trifluoro-1-oxoethyl)amino]butyl]-6,6-dimethyl-3-azabicyclo[3.1.0]hexane-2-carboxamide

>  <PUBCHEM_IUPAC_NAME_MARKUP>  (1) 
(1<I>R</I>,2<I>S</I>,5<I>S</I>)-<I>N</I>-[(1<I>S</I>)-1-cyano-2-[(3<I>S</I>)-2-oxopyrrolidin-3-yl]ethyl]-3-[(2<I>S</I>)-3,3-dimethyl-2-[(2,2,2-trifluoroacetyl)amino]butanoyl]-6,6-dimethyl-3-azabicyclo[3.1.0]hexane-2-carboxamide

>  <PUBCHEM_IUPAC_NAME>  (1) 
(1R,2S,5S)-N-[(1S)-1-cyano-2-[(3S)-2-oxopyrrolidin-3-yl]ethyl]-3-[(2S)-3,3-dimethyl-2-[(2,2,2-trifluoroacetyl)amino]butanoyl]-6,6-dimethyl-3-azabicyclo[3.1.0]hexane-2-carboxamide

>  <PUBCHEM_IUPAC_SYSTEMATIC_NAME>  (1) 
(1R,2S,5S)-N-[(1S)-1-cyano-2-[(3S)-2-oxidanylidenepyrrolidin-3-yl]ethyl]-3-[(2S)-3,3-dimethyl-2-[2,2,2-tris(fluoranyl)ethanoylamino]butanoyl]-6,6-dimethyl-3-azabicyclo[3.1.0]hexane-2-carboxamide

>  <PUBCHEM_IUPAC_TRADITIONAL_NAME>  (1) 
(1R,2S,5S)-N-[(1S)-1-cyano-2-[(3S)-2-ketopyrrolidin-3-yl]ethyl]-3-[(2S)-3,3-dimethyl-2-[(2,2,2-trifluoroacetyl)amino]butanoyl]-6,6-dimethyl-3-azabicyclo[3.1.0]hexane-2-carboxamide

>  <PUBCHEM_IUPAC_INCHI>  (1) 
InChI=1S/C23H32F3N5O4/c1-21(2,3)16(30-20(35)23(24,25)26)19(34)31-10-13-14(22(13,4)5)15(31)18(33)29-12(9-27)8-11-6-7-28-17(11)32/h11-16H,6-8,10H2,1-5H3,(H,28,32)(H,29,33)(H,30,35)/t11-,12-,13-,14-,15-,16+/m0/s1

>  <PUBCHEM_IUPAC_INCHIKEY>  (1) 
LIENCHBZNNMNKG-OJFNHCPVSA-N

>  <PUBCHEM_XLOGP3_AA>  (1) 
2.2

>  <PUBCHEM_EXACT_MASS>  (1) 
499.24063901

>  <PUBCHEM_MOLECULAR_FORMULA>  (1) 
C23H32F3N5O4

>  <PUBCHEM_MOLECULAR_WEIGHT>  (1) 
499.5

>  <PUBCHEM_REFERENCE_STANDARDIZATION>  (1) 
Bypass - this structure was created from CID 155903259

>  <PUBCHEM_OPENEYE_CAN_SMILES>  (1) 
CC1(C2C1C(N(C2)C(=O)C(C(C)(C)C)NC(=O)C(F)(F)F)C(=O)NC(CC3CCNC3=O)C#N)C

>  <PUBCHEM_OPENEYE_ISO_SMILES>  (1) 
CC1([C@@H]2[C@H]1[C@H](N(C2)C(=O)[C@H](C(C)(C)C)NC(=O)C(F)(F)F)C(=O)N[C@@H](C[C@@H]3CCNC3=O)C#N)C

>  <PUBCHEM_CACTVS_TPSA>  (1) 
131

>  <PUBCHEM_MONOISOTOPIC_WEIGHT>  (1) 
499.24063901

>  <PUBCHEM_TOTAL_CHARGE>  (1) 
0

>  <PUBCHEM_HEAVY_ATOM_COUNT>  (1) 
35

>  <PUBCHEM_ATOM_DEF_STEREO_COUNT>  (1) 
6

>  <PUBCHEM_ATOM_UDEF_STEREO_COUNT>  (1) 
0

>  <PUBCHEM_BOND_DEF_STEREO_COUNT>  (1) 
0

>  <PUBCHEM_BOND_UDEF_STEREO_COUNT>  (1) 
0

>  <PUBCHEM_ISOTOPIC_ATOM_COUNT>  (1) 
0

>  <PUBCHEM_COMPONENT_COUNT>  (1) 
1

>  <PUBCHEM_CACTVS_TAUTO_COUNT>  (1) 
-1

>  <PUBCHEM_COORDINATE_TYPE>  (1) 
1
5
255

>  <PUBCHEM_BONDANNOTATIONS>  (1) 
22  10  6
13  36  6
15  37  6
16  20  6
29  28  5
24  9  6

$$$$
