10074640
     RDKit          2D

 36 40  0  0  0  0  0  0  0  0999 V2000
    7.0916    5.6433    0.0000 S   0  0  0  0  0  0  0  0  0  0  0  0
    7.1962   -0.3512    0.0000 O   0  0  0  0  0  0  0  0  0  0  0  0
    2.8660   -2.8512    0.0000 N   0  0  0  0  0  0  0  0  0  0  0  0
    2.8660   -4.8512    0.0000 N   0  0  0  0  0  0  0  0  0  0  0  0
    6.3301    1.1488    0.0000 N   0  0  0  0  0  0  0  0  0  0  0  0
    8.0622    4.1488    0.0000 N   0  0  0  0  0  0  0  0  0  0  0  0
    6.2826    4.2420    0.0000 N   0  0  0  0  0  0  0  0  0  0  0  0
    3.0366    5.5851    0.0000 N   0  0  0  0  0  0  0  0  0  0  0  0
    2.0000   -3.3512    0.0000 C   0  0  0  0  0  0  0  0  0  0  0  0
    3.7320   -3.3512    0.0000 C   0  0  0  0  0  0  0  0  0  0  0  0
    2.0000   -4.3512    0.0000 C   0  0  0  0  0  0  0  0  0  0  0  0
    3.7320   -4.3512    0.0000 C   0  0  0  0  0  0  0  0  0  0  0  0
    2.8660   -1.8512    0.0000 C   0  0  0  0  0  0  0  0  0  0  0  0
    2.8660   -5.8512    0.0000 C   0  0  0  0  0  0  0  0  0  0  0  0
    3.7320   -1.3512    0.0000 C   0  0  0  0  0  0  0  0  0  0  0  0
    3.7320   -0.3512    0.0000 C   0  0  0  0  0  0  0  0  0  0  0  0
    4.5981   -1.8512    0.0000 C   0  0  0  0  0  0  0  0  0  0  0  0
    4.5981    0.1488    0.0000 C   0  0  0  0  0  0  0  0  0  0  0  0
    5.4641   -1.3512    0.0000 C   0  0  0  0  0  0  0  0  0  0  0  0
    5.4641   -0.3512    0.0000 C   0  0  0  0  0  0  0  0  0  0  0  0
    6.3301    0.1488    0.0000 C   0  0  0  0  0  0  0  0  0  0  0  0
    7.1962    1.6488    0.0000 C   0  0  0  0  0  0  0  0  0  0  0  0
    8.0622    3.1488    0.0000 C   0  0  0  0  0  0  0  0  0  0  0  0
    7.1962    2.6488    0.0000 C   0  0  0  0  0  0  0  0  0  0  0  0
    8.9282    2.6488    0.0000 C   0  0  0  0  0  0  0  0  0  0  0  0
    8.0622    1.1488    0.0000 C   0  0  0  0  0  0  0  0  0  0  0  0
    8.9282    1.6488    0.0000 C   0  0  0  0  0  0  0  0  0  0  0  0
    9.7942    3.1488    0.0000 C   0  0  0  0  0  0  0  0  0  0  0  0
    7.1962    4.6488    0.0000 C   0  0  0  0  0  0  0  0  0  0  0  0
    5.6135    4.9852    0.0000 C   0  0  0  0  0  0  0  0  0  0  0  0
    6.1135    5.8512    0.0000 C   0  0  0  0  0  0  0  0  0  0  0  0
    4.6190    4.8807    0.0000 C   0  0  0  0  0  0  0  0  0  0  0  0
    4.2122    3.9671    0.0000 C   0  0  0  0  0  0  0  0  0  0  0  0
    4.0312    5.6897    0.0000 C   0  0  0  0  0  0  0  0  0  0  0  0
    3.2177    3.8626    0.0000 C   0  0  0  0  0  0  0  0  0  0  0  0
    2.6299    4.6716    0.0000 C   0  0  0  0  0  0  0  0  0  0  0  0
  1 29  1  0
  1 31  1  0
  2 21  2  0
  3  9  1  0
  3 10  1  0
  3 13  1  0
  4 11  1  0
  4 12  1  0
  4 14  1  0
  5 21  1  0
  5 22  1  0
  6 23  1  0
  6 29  1  0
  7 29  2  0
  7 30  1  0
  8 34  2  0
  8 36  1  0
  9 11  1  0
 10 12  1  0
 13 15  1  0
 15 16  2  0
 15 17  1  0
 16 18  1  0
 17 19  2  0
 18 20  2  0
 19 20  1  0
 20 21  1  0
 22 24  2  0
 22 26  1  0
 23 24  1  0
 23 25  2  0
 25 27  1  0
 25 28  1  0
 26 27  2  0
 30 31  2  0
 30 32  1  0
 32 33  2  0
 32 34  1  0
 33 35  1  0
 35 36  2  0
M  END
>  <PUBCHEM_COMPOUND_CID>  (1) 
10074640

>  <PUBCHEM_COMPOUND_CANONICALIZED>  (1) 
1

>  <PUBCHEM_CACTVS_COMPLEXITY>  (1) 
696

>  <PUBCHEM_CACTVS_HBOND_ACCEPTOR>  (1) 
7

>  <PUBCHEM_CACTVS_HBOND_DONOR>  (1) 
2

>  <PUBCHEM_CACTVS_ROTATABLE_BOND>  (1) 
7

>  <PUBCHEM_CACTVS_SUBSKEYS>  (1) 
AAADceB7oABAAAAAAAAAAAAAAAAAAWAAAAA8eIEAAAAAAAAB9AAAHgQQAAAADAjF3gS/0ZPIEAisAzV3dACC8Kl1CjkJ2DU4ZNiIYPLg3dGUIQholALIyacYiACOSAAAAAQCAACQAAAACAQAAAAAAAAAAA==

>  <PUBCHEM_IUPAC_OPENEYE_NAME>  (1) 
4-[(4-methylpiperazin-1-yl)methyl]-N-[4-methyl-3-[[4-(3-pyridyl)thiazol-2-yl]amino]phenyl]benzamide

>  <PUBCHEM_IUPAC_CAS_NAME>  (1) 
4-[(4-methyl-1-piperazinyl)methyl]-N-[4-methyl-3-[[4-(3-pyridinyl)-2-thiazolyl]amino]phenyl]benzamide

>  <PUBCHEM_IUPAC_NAME_MARKUP>  (1) 
4-[(4-methylpiperazin-1-yl)methyl]-<I>N</I>-[4-methyl-3-[(4-pyridin-3-yl-1,3-thiazol-2-yl)amino]phenyl]benzamide

>  <PUBCHEM_IUPAC_NAME>  (1) 
4-[(4-methylpiperazin-1-yl)methyl]-N-[4-methyl-3-[(4-pyridin-3-yl-1,3-thiazol-2-yl)amino]phenyl]benzamide

>  <PUBCHEM_IUPAC_SYSTEMATIC_NAME>  (1) 
4-[(4-methylpiperazin-1-yl)methyl]-N-[4-methyl-3-[(4-pyridin-3-yl-1,3-thiazol-2-yl)amino]phenyl]benzamide

>  <PUBCHEM_IUPAC_TRADITIONAL_NAME>  (1) 
4-[(4-methylpiperazino)methyl]-N-[4-methyl-3-[[4-(3-pyridyl)thiazol-2-yl]amino]phenyl]benzamide

>  <PUBCHEM_IUPAC_INCHI>  (1) 
InChI=1S/C28H30N6OS/c1-20-5-10-24(16-25(20)31-28-32-26(19-36-28)23-4-3-11-29-17-23)30-27(35)22-8-6-21(7-9-22)18-34-14-12-33(2)13-15-34/h3-11,16-17,19H,12-15,18H2,1-2H3,(H,30,35)(H,31,32)

>  <PUBCHEM_IUPAC_INCHIKEY>  (1) 
WJEOLQLKVOPQFV-UHFFFAOYSA-N

>  <PUBCHEM_XLOGP3_AA>  (1) 
4.3

>  <PUBCHEM_EXACT_MASS>  (1) 
498.22018078

>  <PUBCHEM_MOLECULAR_FORMULA>  (1) 
C28H30N6OS

>  <PUBCHEM_MOLECULAR_WEIGHT>  (1) 
498.6

>  <PUBCHEM_OPENEYE_CAN_SMILES>  (1) 
CC1=C(C=C(C=C1)NC(=O)C2=CC=C(C=C2)CN3CCN(CC3)C)NC4=NC(=CS4)C5=CN=CC=C5

>  <PUBCHEM_OPENEYE_ISO_SMILES>  (1) 
CC1=C(C=C(C=C1)NC(=O)C2=CC=C(C=C2)CN3CCN(CC3)C)NC4=NC(=CS4)C5=CN=CC=C5

>  <PUBCHEM_CACTVS_TPSA>  (1) 
102

>  <PUBCHEM_MONOISOTOPIC_WEIGHT>  (1) 
498.22018078

>  <PUBCHEM_TOTAL_CHARGE>  (1) 
0

>  <PUBCHEM_HEAVY_ATOM_COUNT>  (1) 
36

>  <PUBCHEM_ATOM_DEF_STEREO_COUNT>  (1) 
0

>  <PUBCHEM_ATOM_UDEF_STEREO_COUNT>  (1) 
0

>  <PUBCHEM_BOND_DEF_STEREO_COUNT>  (1) 
0

>  <PUBCHEM_BOND_UDEF_STEREO_COUNT>  (1) 
0

>  <PUBCHEM_ISOTOPIC_ATOM_COUNT>  (1) 
0

>  <PUBCHEM_COMPONENT_COUNT>  (1) 
1

>  <PUBCHEM_CACTVS_TAUTO_COUNT>  (1) 
-1

>  <PUBCHEM_COORDINATE_TYPE>  (1) 
1
5
255

>  <PUBCHEM_BONDANNOTATIONS>  (1) 
1  29  8
1  31  8
15  16  8
15  17  8
16  18  8
17  19  8
18  20  8
19  20  8
22  24  8
22  26  8
23  24  8
23  25  8
25  27  8
26  27  8
30  31  8
32  33  8
32  34  8
33  35  8
35  36  8
7  29  8
7  30  8
8  34  8
8  36  8

$$$$
