71481119
     RDKit          2D

 34 34  0  0  1  0  0  0  0  0999 V2000
    8.0622    0.1156    0.0000 S   0  0  0  0  0  0  0  0  0  0  0  0
    8.9282   -1.3844    0.0000 Na  0  0  0  0  0 15  0  0  0  0  0  0
    8.9282    1.6156    0.0000 O   0  0  0  0  0  0  0  0  0  0  0  0
    7.4236    4.7792    0.0000 O   0  0  0  0  0  0  0  0  0  0  0  0
    8.0622   -0.8844    0.0000 O   0  0  0  0  0  0  0  0  0  0  0  0
    5.4641    2.6156    0.0000 O   0  0  0  0  0  0  0  0  0  0  0  0
    9.0622    0.1156    0.0000 O   0  0  0  0  0  0  0  0  0  0  0  0
    7.0622    0.1156    0.0000 O   0  0  0  0  0  0  0  0  0  0  0  0
    3.7320   -1.3844    0.0000 O   0  0  0  0  0  0  0  0  0  0  0  0
    2.8660    0.1156    0.0000 O   0  0  0  0  0  0  0  0  0  0  0  0
    6.3301    1.1156    0.0000 N   0  0  0  0  0  0  0  0  0  0  0  0
    9.1448    4.3180    0.0000 N   0  0  0  0  0  0  0  0  0  0  0  0
    4.5981    0.1156    0.0000 N   0  0  0  0  0  0  0  0  0  0  0  0
    8.0622    3.1156    0.0000 C   0  0  0  0  0  0  0  0  0  0  0  0
    7.1962    2.6156    0.0000 C   0  0  0  0  0  0  0  0  0  0  0  0
    7.1962    1.6156    0.0000 C   0  0  0  0  0  0  0  0  0  0  0  0
    8.9757    2.7088    0.0000 C   0  0  0  0  0  0  0  0  0  0  0  0
    9.6448    3.4520    0.0000 C   0  0  0  0  0  0  0  0  0  0  0  0
    8.0622    1.1156    0.0000 C   0  0  0  0  0  0  0  0  0  0  0  0
    8.1667    4.1101    0.0000 C   0  0  0  0  0  0  0  0  0  0  0  0
    4.5981    1.1156    0.0000 C   0  0  0  0  0  0  0  0  0  0  0  0
    5.4641    1.6156    0.0000 C   0  0  0  0  0  0  0  0  0  0  0  0
    3.7320    1.6156    0.0000 C   0  0  0  0  0  0  0  0  0  0  0  0
    3.7320    2.6156    0.0000 C   0  0  0  0  0  0  0  0  0  0  0  0
    2.8660    3.1156    0.0000 C   0  0  0  0  0  0  0  0  0  0  0  0
    4.5981    3.1156    0.0000 C   0  0  0  0  0  0  0  0  0  0  0  0
    3.7320   -0.3844    0.0000 C   0  0  0  0  0  0  0  0  0  0  0  0
    2.8660   -1.8844    0.0000 C   0  0  0  0  0  0  0  0  0  0  0  0
    2.8660   -2.8844    0.0000 C   0  0  0  0  0  0  0  0  0  0  0  0
    3.7320   -3.3844    0.0000 C   0  0  0  0  0  0  0  0  0  0  0  0
    2.0000   -3.3844    0.0000 C   0  0  0  0  0  0  0  0  0  0  0  0
    3.7320   -4.3844    0.0000 C   0  0  0  0  0  0  0  0  0  0  0  0
    2.0000   -4.3844    0.0000 C   0  0  0  0  0  0  0  0  0  0  0  0
    2.8660   -4.8844    0.0000 C   0  0  0  0  0  0  0  0  0  0  0  0
  1  5  1  0
  1  7  2  0
  1  8  2  0
  1 19  1  0
  3 19  1  0
  4 20  2  0
  6 22  2  0
  9 27  1  0
  9 28  1  0
 10 27  2  0
 16 11  1  0
 11 22  1  0
 12 18  1  0
 12 20  1  0
 21 13  1  0
 13 27  1  0
 14 15  1  0
 14 17  1  0
 14 20  1  0
 16 15  1  1
 16 19  1  0
 17 18  1  0
 21 22  1  0
 21 23  1  1
 23 24  1  0
 24 25  1  0
 24 26  1  0
 28 29  1  0
 29 30  2  0
 29 31  1  0
 30 32  1  0
 31 33  2  0
 32 34  2  0
 33 34  1  0
M  CHG  2   2   1   5  -1
M  END
>  <PUBCHEM_COMPOUND_CID>  (1) 
71481119

>  <PUBCHEM_COMPOUND_CANONICALIZED>  (1) 
1

>  <PUBCHEM_CACTVS_COMPLEXITY>  (1) 
783

>  <PUBCHEM_CACTVS_HBOND_ACCEPTOR>  (1) 
8

>  <PUBCHEM_CACTVS_HBOND_DONOR>  (1) 
4

>  <PUBCHEM_CACTVS_ROTATABLE_BOND>  (1) 
12

>  <PUBCHEM_CACTVS_SUBSKEYS>  (1) 
AAADceB7PCBAAAAAAAAAAAAAAAAAAWAAAAAwAAAAAAAAAAABAAAAHgQQCAAADSjl2AayCILABgKIAiFSGHBCAAAgAAAIiIGICIkKdjKAsTiccAAk1gGYqAec1CIOAAAAAAAAAAAAAAAAAAAAAAAAAAAAAA==

>  <PUBCHEM_IUPAC_OPENEYE_NAME>  (1) 
sodium;(2S)-2-[[(2S)-2-(benzyloxycarbonylamino)-4-methyl-pentanoyl]amino]-1-hydroxy-3-(2-oxopyrrolidin-3-yl)propane-1-sulfonate

>  <PUBCHEM_IUPAC_CAS_NAME>  (1) 
sodium;(2S)-1-hydroxy-2-[[(2S)-4-methyl-1-oxo-2-(phenylmethoxycarbonylamino)pentyl]amino]-3-(2-oxo-3-pyrrolidinyl)-1-propanesulfonate

>  <PUBCHEM_IUPAC_NAME_MARKUP>  (1) 
sodium;(2<I>S</I>)-1-hydroxy-2-[[(2<I>S</I>)-4-methyl-2-(phenylmethoxycarbonylamino)pentanoyl]amino]-3-(2-oxopyrrolidin-3-yl)propane-1-sulfonate

>  <PUBCHEM_IUPAC_NAME>  (1) 
sodium;(2S)-1-hydroxy-2-[[(2S)-4-methyl-2-(phenylmethoxycarbonylamino)pentanoyl]amino]-3-(2-oxopyrrolidin-3-yl)propane-1-sulfonate

>  <PUBCHEM_IUPAC_SYSTEMATIC_NAME>  (1) 
sodium;(2S)-2-[[(2S)-4-methyl-2-(phenylmethoxycarbonylamino)pentanoyl]amino]-1-oxidanyl-3-(2-oxidanylidenepyrrolidin-3-yl)propane-1-sulfonate

>  <PUBCHEM_IUPAC_TRADITIONAL_NAME>  (1) 
sodium;(2S)-2-[[(2S)-2-(benzyloxycarbonylamino)-4-methyl-pentanoyl]amino]-1-hydroxy-3-(2-ketopyrrolidin-3-yl)propane-1-sulfonate

>  <PUBCHEM_IUPAC_INCHI>  (1) 
InChI=1S/C21H31N3O8S.Na/c1-13(2)10-16(24-21(28)32-12-14-6-4-3-5-7-14)19(26)23-17(20(27)33(29,30)31)11-15-8-9-22-18(15)25;/h3-7,13,15-17,20,27H,8-12H2,1-2H3,(H,22,25)(H,23,26)(H,24,28)(H,29,30,31);/q;+1/p-1/t15?,16-,17-,20?;/m0./s1

>  <PUBCHEM_IUPAC_INCHIKEY>  (1) 
BSPJDKCMFIPBAW-JPBGFCRCSA-M

>  <PUBCHEM_EXACT_MASS>  (1) 
507.16513038

>  <PUBCHEM_MOLECULAR_FORMULA>  (1) 
C21H30N3NaO8S

>  <PUBCHEM_MOLECULAR_WEIGHT>  (1) 
507.5

>  <PUBCHEM_OPENEYE_CAN_SMILES>  (1) 
CC(C)CC(C(=O)NC(CC1CCNC1=O)C(O)S(=O)(=O)[O-])NC(=O)OCC2=CC=CC=C2.[Na+]

>  <PUBCHEM_OPENEYE_ISO_SMILES>  (1) 
CC(C)C[C@@H](C(=O)N[C@@H](CC1CCNC1=O)C(O)S(=O)(=O)[O-])NC(=O)OCC2=CC=CC=C2.[Na+]

>  <PUBCHEM_CACTVS_TPSA>  (1) 
182

>  <PUBCHEM_MONOISOTOPIC_WEIGHT>  (1) 
507.16513038

>  <PUBCHEM_TOTAL_CHARGE>  (1) 
0

>  <PUBCHEM_HEAVY_ATOM_COUNT>  (1) 
34

>  <PUBCHEM_ATOM_DEF_STEREO_COUNT>  (1) 
2

>  <PUBCHEM_ATOM_UDEF_STEREO_COUNT>  (1) 
2

>  <PUBCHEM_BOND_DEF_STEREO_COUNT>  (1) 
0

>  <PUBCHEM_BOND_UDEF_STEREO_COUNT>  (1) 
0

>  <PUBCHEM_ISOTOPIC_ATOM_COUNT>  (1) 
0

>  <PUBCHEM_COMPONENT_COUNT>  (1) 
2

>  <PUBCHEM_CACTVS_TAUTO_COUNT>  (1) 
12

>  <PUBCHEM_NONSTANDARDBOND>  (1) 
2  5  7

>  <PUBCHEM_COORDINATE_TYPE>  (1) 
1
5
255

>  <PUBCHEM_BONDANNOTATIONS>  (1) 
16  11  5
21  13  5
14  15  3
29  30  8
29  31  8
19  3  3
30  32  8
31  33  8
32  34  8
33  34  8

$$$$
