3000706
     RDKit          2D

 78 78  0  0  1  0  0  0  0  0999 V2000
   14.8335    0.0000    0.0000 O   0  0  0  0  0  0  0  0  0  0  0  0
    6.2282   -4.9683    0.0000 O   0  0  0  0  0  0  0  0  0  0  0  0
    6.2282    4.9683    0.0000 O   0  0  0  0  0  0  0  0  0  0  0  0
   11.9650   -4.9683    0.0000 O   0  0  0  0  0  0  0  0  0  0  0  0
   11.9650    4.9683    0.0000 O   0  0  0  0  0  0  0  0  0  0  0  0
    3.3598   -0.0000    0.0000 O   0  0  0  0  0  0  0  0  0  0  0  0
   15.4272   -2.3041    0.0000 O   0  0  0  0  0  0  0  0  0  0  0  0
    7.9268    6.6345    0.0000 O   0  0  0  0  0  0  0  0  0  0  0  0
    3.9359   -4.3304    0.0000 O   0  0  0  0  0  0  0  0  0  0  0  0
   15.7311    1.1698    0.0000 O   0  0  0  0  0  0  0  0  0  0  0  0
    6.7925   -6.3306    0.0000 O   0  0  0  0  0  0  0  0  0  0  0  0
    4.7662    5.1607    0.0000 O   0  0  0  0  0  0  0  0  0  0  0  0
   13.4270   -5.1607    0.0000 O   0  0  0  0  0  0  0  0  0  0  0  0
   11.4008    6.3306    0.0000 O   0  0  0  0  0  0  0  0  0  0  0  0
    2.4621   -1.1698    0.0000 O   0  0  0  0  0  0  0  0  0  0  0  0
   14.2574    4.3304    0.0000 O   0  0  0  0  0  0  0  0  0  0  0  0
   10.2665   -6.6345    0.0000 O   0  0  0  0  0  0  0  0  0  0  0  0
    2.7660    2.3041    0.0000 O   0  0  0  0  0  0  0  0  0  0  0  0
   14.0649   -2.8684    0.0000 N   0  0  0  0  0  0  0  0  0  0  0  0
    9.0966    5.7369    0.0000 N   0  0  0  0  0  0  0  0  0  0  0  0
    4.1284   -2.8684    0.0000 N   0  0  0  0  0  0  0  0  0  0  0  0
   14.0649    2.8684    0.0000 N   0  0  0  0  0  0  0  0  0  0  0  0
    9.0966   -5.7369    0.0000 N   0  0  0  0  0  0  0  0  0  0  0  0
    4.1284    2.8684    0.0000 N   0  0  0  0  0  0  0  0  0  0  0  0
   14.7463   -0.9962    0.0000 C   0  0  0  0  0  0  0  0  0  0  0  0
    5.4090   -4.3947    0.0000 C   0  0  0  0  0  0  0  0  0  0  0  0
    7.1345    5.3909    0.0000 C   0  0  0  0  0  0  0  0  0  0  0  0
   13.4913   -3.6876    0.0000 C   0  0  0  0  0  0  0  0  0  0  0  0
   10.0928    5.6497    0.0000 C   0  0  0  0  0  0  0  0  0  0  0  0
    3.7057   -1.9621    0.0000 C   0  0  0  0  0  0  0  0  0  0  0  0
   14.4875    1.9621    0.0000 C   0  0  0  0  0  0  0  0  0  0  0  0
    8.1004   -5.6497    0.0000 C   0  0  0  0  0  0  0  0  0  0  0  0
    4.7019    3.6876    0.0000 C   0  0  0  0  0  0  0  0  0  0  0  0
   15.7311   -1.1698    0.0000 C   0  0  0  0  0  0  0  0  0  0  0  0
    4.7662   -5.1607    0.0000 C   0  0  0  0  0  0  0  0  0  0  0  0
    6.7925    6.3306    0.0000 C   0  0  0  0  0  0  0  0  0  0  0  0
   14.2574   -4.3304    0.0000 C   0  0  0  0  0  0  0  0  0  0  0  0
   10.2665    6.6345    0.0000 C   0  0  0  0  0  0  0  0  0  0  0  0
    2.7660   -2.3041    0.0000 C   0  0  0  0  0  0  0  0  0  0  0  0
   15.4272    2.3041    0.0000 C   0  0  0  0  0  0  0  0  0  0  0  0
    7.9268   -6.6345    0.0000 C   0  0  0  0  0  0  0  0  0  0  0  0
    3.9359    4.3304    0.0000 C   0  0  0  0  0  0  0  0  0  0  0  0
   14.4875   -1.9621    0.0000 C   0  0  0  0  0  0  0  0  0  0  0  0
    8.1004    5.6497    0.0000 C   0  0  0  0  0  0  0  0  0  0  0  0
    4.7019   -3.6876    0.0000 C   0  0  0  0  0  0  0  0  0  0  0  0
   14.7463    0.9962    0.0000 C   0  0  0  0  0  0  0  0  0  0  0  0
    7.1345   -5.3909    0.0000 C   0  0  0  0  0  0  0  0  0  0  0  0
    5.4090    4.3947    0.0000 C   0  0  0  0  0  0  0  0  0  0  0  0
   12.7842   -4.3947    0.0000 C   0  0  0  0  0  0  0  0  0  0  0  0
   11.0587    5.3909    0.0000 C   0  0  0  0  0  0  0  0  0  0  0  0
    3.4469   -0.9962    0.0000 C   0  0  0  0  0  0  0  0  0  0  0  0
   16.3739   -0.4038    0.0000 C   0  0  0  0  0  0  0  0  0  0  0  0
   16.0731   -2.1095    0.0000 C   0  0  0  0  0  0  0  0  0  0  0  0
    5.1083   -6.1004    0.0000 C   0  0  0  0  0  0  0  0  0  0  0  0
    3.7814   -4.9871    0.0000 C   0  0  0  0  0  0  0  0  0  0  0  0
    7.4353    7.0966    0.0000 C   0  0  0  0  0  0  0  0  0  0  0  0
    5.8077    6.5042    0.0000 C   0  0  0  0  0  0  0  0  0  0  0  0
   15.1970   -3.9884    0.0000 C   0  0  0  0  0  0  0  0  0  0  0  0
   14.0837   -5.3152    0.0000 C   0  0  0  0  0  0  0  0  0  0  0  0
    9.5004    7.2773    0.0000 C   0  0  0  0  0  0  0  0  0  0  0  0
   11.2062    6.9765    0.0000 C   0  0  0  0  0  0  0  0  0  0  0  0
    2.5924   -3.2890    0.0000 C   0  0  0  0  0  0  0  0  0  0  0  0
    2.0000   -1.6614    0.0000 C   0  0  0  0  0  0  0  0  0  0  0  0
   15.6008    3.2890    0.0000 C   0  0  0  0  0  0  0  0  0  0  0  0
   16.1932    1.6614    0.0000 C   0  0  0  0  0  0  0  0  0  0  0  0
    8.6928   -7.2773    0.0000 C   0  0  0  0  0  0  0  0  0  0  0  0
    6.9871   -6.9765    0.0000 C   0  0  0  0  0  0  0  0  0  0  0  0
    2.9962    3.9884    0.0000 C   0  0  0  0  0  0  0  0  0  0  0  0
    4.1095    5.3152    0.0000 C   0  0  0  0  0  0  0  0  0  0  0  0
   11.0587   -5.3909    0.0000 C   0  0  0  0  0  0  0  0  0  0  0  0
   12.7842    4.3947    0.0000 C   0  0  0  0  0  0  0  0  0  0  0  0
    3.4469    0.9962    0.0000 C   0  0  0  0  0  0  0  0  0  0  0  0
   13.4913    3.6876    0.0000 C   0  0  0  0  0  0  0  0  0  0  0  0
   10.0928   -5.6497    0.0000 C   0  0  0  0  0  0  0  0  0  0  0  0
    3.7057    1.9621    0.0000 C   0  0  0  0  0  0  0  0  0  0  0  0
   11.4008   -6.3306    0.0000 C   0  0  0  0  0  0  0  0  0  0  0  0
   13.4270    5.1607    0.0000 C   0  0  0  0  0  0  0  0  0  0  0  0
    2.4621    1.1698    0.0000 C   0  0  0  0  0  0  0  0  0  0  0  0
  1 25  1  0
  1 46  1  0
  2 26  1  0
  2 47  1  0
  3 27  1  0
  3 48  1  0
  4 49  1  0
  4 70  1  0
  5 50  1  0
  5 71  1  0
  6 51  1  0
  6 72  1  0
  7 43  2  0
  8 44  2  0
  9 45  2  0
 10 46  2  0
 11 47  2  0
 12 48  2  0
 13 49  2  0
 14 50  2  0
 15 51  2  0
 16 73  2  0
 17 74  2  0
 18 75  2  0
 19 28  1  0
 19 43  1  0
 20 29  1  0
 20 44  1  0
 21 30  1  0
 21 45  1  0
 22 31  1  0
 22 73  1  0
 23 32  1  0
 23 74  1  0
 24 33  1  0
 24 75  1  0
 25 34  1  6
 25 43  1  0
 26 35  1  6
 26 45  1  0
 27 36  1  6
 27 44  1  0
 28 37  1  6
 28 49  1  0
 29 38  1  6
 29 50  1  0
 30 39  1  6
 30 51  1  0
 31 40  1  1
 31 46  1  0
 32 41  1  1
 32 47  1  0
 33 42  1  1
 33 48  1  0
 34 52  1  0
 34 53  1  0
 35 54  1  0
 35 55  1  0
 36 56  1  0
 36 57  1  0
 37 58  1  0
 37 59  1  0
 38 60  1  0
 38 61  1  0
 39 62  1  0
 39 63  1  0
 40 64  1  0
 40 65  1  0
 41 66  1  0
 41 67  1  0
 42 68  1  0
 42 69  1  0
 70 74  1  0
 70 76  1  1
 71 73  1  0
 71 77  1  1
 72 75  1  0
 72 78  1  1
M  END
>  <PUBCHEM_COMPOUND_CID>  (1) 
3000706

>  <PUBCHEM_COMPOUND_CANONICALIZED>  (1) 
1

>  <PUBCHEM_CACTVS_COMPLEXITY>  (1) 
1910

>  <PUBCHEM_CACTVS_HBOND_ACCEPTOR>  (1) 
18

>  <PUBCHEM_CACTVS_HBOND_DONOR>  (1) 
6

>  <PUBCHEM_CACTVS_ROTATABLE_BOND>  (1) 
9

>  <PUBCHEM_CACTVS_SUBSKEYS>  (1) 
AAADcfB/vgAAAAAAAAAAAAAAAAAAAAAAAAAAAAAAAAAAAAAAAAAAHgAQAAAADTzhgAYCCALABAAIAAGQGAIAAAAAAAAAAIHIAAACABAAgCQHAAAEFgCQAAAAAAAIAAAAAAAAAAAAAAAAAAAAAAAAAAAAAA==

>  <PUBCHEM_IUPAC_OPENEYE_NAME>  (1) 
(3R,6R,9S,12S,15R,18R,21S,24S,27R,30R,33S,36S)-3,6,9,15,18,21,27,30,33-nonaisopropyl-12,24,36-trimethyl-1,7,13,19,25,31-hexaoxa-4,10,16,22,28,34-hexazacyclohexatriacontane-2,5,8,11,14,17,20,23,26,29,32,35-dodecone

>  <PUBCHEM_IUPAC_CAS_NAME>  (1) 
(3S,6S,9R,12R,15S,18S,21R,24R,27S,30S,33R,36R)-6,18,30-trimethyl-3,9,12,15,21,24,27,33,36-nona(propan-2-yl)-1,7,13,19,25,31-hexaoxa-4,10,16,22,28,34-hexazacyclohexatriacontane-2,5,8,11,14,17,20,23,26,29,32,35-dodecone

>  <PUBCHEM_IUPAC_NAME_MARKUP>  (1) 
(3<I>S</I>,6<I>S</I>,9<I>R</I>,12<I>R</I>,15<I>S</I>,18<I>S</I>,21<I>R</I>,24<I>R</I>,27<I>S</I>,30<I>S</I>,33<I>R</I>,36<I>R</I>)-6,18,30-trimethyl-3,9,12,15,21,24,27,33,36-nona(propan-2-yl)-1,7,13,19,25,31-hexaoxa-4,10,16,22,28,34-hexazacyclohexatriacontane-2,5,8,11,14,17,20,23,26,29,32,35-dodecone

>  <PUBCHEM_IUPAC_NAME>  (1) 
(3S,6S,9R,12R,15S,18S,21R,24R,27S,30S,33R,36R)-6,18,30-trimethyl-3,9,12,15,21,24,27,33,36-nona(propan-2-yl)-1,7,13,19,25,31-hexaoxa-4,10,16,22,28,34-hexazacyclohexatriacontane-2,5,8,11,14,17,20,23,26,29,32,35-dodecone

>  <PUBCHEM_IUPAC_SYSTEMATIC_NAME>  (1) 
(3S,6S,9R,12R,15S,18S,21R,24R,27S,30S,33R,36R)-6,18,30-trimethyl-3,9,12,15,21,24,27,33,36-nona(propan-2-yl)-1,7,13,19,25,31-hexaoxa-4,10,16,22,28,34-hexazacyclohexatriacontane-2,5,8,11,14,17,20,23,26,29,32,35-dodecone

>  <PUBCHEM_IUPAC_TRADITIONAL_NAME>  (1) 
(3R,6R,9S,12S,15R,18R,21S,24S,27R,30R,33S,36S)-3,6,9,15,18,21,27,30,33-nonaisopropyl-12,24,36-trimethyl-1,7,13,19,25,31-hexaoxa-4,10,16,22,28,34-hexazacyclohexatriacontane-2,5,8,11,14,17,20,23,26,29,32,35-hexaquinone

>  <PUBCHEM_IUPAC_INCHI>  (1) 
InChI=1S/C54H90N6O18/c1-22(2)34-49(67)73-31(19)43(61)55-38(26(9)10)53(71)77-41(29(15)16)47(65)59-36(24(5)6)51(69)75-33(21)45(63)57-39(27(11)12)54(72)78-42(30(17)18)48(66)60-35(23(3)4)50(68)74-32(20)44(62)56-37(25(7)8)52(70)76-40(28(13)14)46(64)58-34/h22-42H,1-21H3,(H,55,61)(H,56,62)(H,57,63)(H,58,64)(H,59,65)(H,60,66)/t31-,32-,33-,34+,35+,36+,37-,38-,39-,40+,41+,42+/m0/s1

>  <PUBCHEM_IUPAC_INCHIKEY>  (1) 
FCFNRCROJUBPLU-DNDCDFAISA-N

>  <PUBCHEM_XLOGP3_AA>  (1) 
9.1

>  <PUBCHEM_EXACT_MASS>  (1) 
1110.63116004

>  <PUBCHEM_MOLECULAR_FORMULA>  (1) 
C54H90N6O18

>  <PUBCHEM_MOLECULAR_WEIGHT>  (1) 
1111.3

>  <PUBCHEM_OPENEYE_CAN_SMILES>  (1) 
CC1C(=O)NC(C(=O)OC(C(=O)NC(C(=O)OC(C(=O)NC(C(=O)OC(C(=O)NC(C(=O)OC(C(=O)NC(C(=O)OC(C(=O)NC(C(=O)O1)C(C)C)C(C)C)C(C)C)C)C(C)C)C(C)C)C(C)C)C)C(C)C)C(C)C)C(C)C

>  <PUBCHEM_OPENEYE_ISO_SMILES>  (1) 
C[C@H]1C(=O)N[C@H](C(=O)O[C@@H](C(=O)N[C@@H](C(=O)O[C@H](C(=O)N[C@H](C(=O)O[C@@H](C(=O)N[C@@H](C(=O)O[C@H](C(=O)N[C@H](C(=O)O[C@@H](C(=O)N[C@@H](C(=O)O1)C(C)C)C(C)C)C(C)C)C)C(C)C)C(C)C)C(C)C)C)C(C)C)C(C)C)C(C)C

>  <PUBCHEM_CACTVS_TPSA>  (1) 
332

>  <PUBCHEM_MONOISOTOPIC_WEIGHT>  (1) 
1110.63116004

>  <PUBCHEM_TOTAL_CHARGE>  (1) 
0

>  <PUBCHEM_HEAVY_ATOM_COUNT>  (1) 
78

>  <PUBCHEM_ATOM_DEF_STEREO_COUNT>  (1) 
12

>  <PUBCHEM_ATOM_UDEF_STEREO_COUNT>  (1) 
0

>  <PUBCHEM_BOND_DEF_STEREO_COUNT>  (1) 
0

>  <PUBCHEM_BOND_UDEF_STEREO_COUNT>  (1) 
0

>  <PUBCHEM_ISOTOPIC_ATOM_COUNT>  (1) 
0

>  <PUBCHEM_COMPONENT_COUNT>  (1) 
1

>  <PUBCHEM_CACTVS_TAUTO_COUNT>  (1) 
-1

>  <PUBCHEM_COORDINATE_TYPE>  (1) 
1
5
255

>  <PUBCHEM_BONDANNOTATIONS>  (1) 
25  34  6
26  35  6
27  36  6
28  37  6
29  38  6
30  39  6
31  40  5
32  41  5
33  42  5
70  76  5
71  77  5
72  78  5

$$$$
