SA6_0020
  -OEChem-07172407062D

 29 27  0     1  0  0  0  0  0999 V2000
    3.1573    0.5878    0.0000 Pt  0  2  0  0  0  0  0  0  0  0  0  0
    2.3483    0.0000    0.0000 O   0  5  0  0  0  0  0  0  0  0  0  0
    2.8483    1.5388    0.0000 O   0  5  0  0  0  0  0  0  0  0  0  0
    0.5883    0.2788    0.0000 O   0  0  0  0  0  0  0  0  0  0  0  0
    1.2605    2.3479    0.0000 O   0  0  0  0  0  0  0  0  0  0  0  0
    0.5369    6.8228    0.0000 N   0  0  0  0  0  0  0  0  0  0  0  0
    2.2690    7.8228    0.0000 N   0  0  0  0  0  0  0  0  0  0  0  0
    1.4030    6.3228    0.0000 C   0  0  1  0  0  0  0  0  0  0  0  0
    2.2690    6.8228    0.0000 C   0  0  1  0  0  0  0  0  0  0  0  0
    1.4030    5.3228    0.0000 C   0  0  0  0  0  0  0  0  0  0  0  0
    3.1350    6.3228    0.0000 C   0  0  0  0  0  0  0  0  0  0  0  0
    2.2690    4.8228    0.0000 C   0  0  0  0  0  0  0  0  0  0  0  0
    3.1350    5.3228    0.0000 C   0  0  0  0  0  0  0  0  0  0  0  0
    1.5393    0.5878    0.0000 C   0  0  0  0  0  0  0  0  0  0  0  0
    1.8483    1.5388    0.0000 C   0  0  0  0  0  0  0  0  0  0  0  0
    0.8660    6.0128    0.0000 H   0  0  0  0  0  0  0  0  0  0  0  0
    1.7320    7.1328    0.0000 H   0  0  0  0  0  0  0  0  0  0  0  0
    0.7924    5.4305    0.0000 H   0  0  0  0  0  0  0  0  0  0  0  0
    1.1909    4.7402    0.0000 H   0  0  0  0  0  0  0  0  0  0  0  0
    3.7456    6.2151    0.0000 H   0  0  0  0  0  0  0  0  0  0  0  0
    3.3471    6.9054    0.0000 H   0  0  0  0  0  0  0  0  0  0  0  0
    1.8705    4.3479    0.0000 H   0  0  0  0  0  0  0  0  0  0  0  0
    2.6675    4.3479    0.0000 H   0  0  0  0  0  0  0  0  0  0  0  0
    3.3471    4.7402    0.0000 H   0  0  0  0  0  0  0  0  0  0  0  0
    3.7456    5.4305    0.0000 H   0  0  0  0  0  0  0  0  0  0  0  0
    0.0000    6.5128    0.0000 H   0  0  0  0  0  0  0  0  0  0  0  0
    0.5369    7.4428    0.0000 H   0  0  0  0  0  0  0  0  0  0  0  0
    2.8059    8.1328    0.0000 H   0  0  0  0  0  0  0  0  0  0  0  0
    1.7320    8.1328    0.0000 H   0  0  0  0  0  0  0  0  0  0  0  0
  2 14  1  0  0  0  0
  3 15  1  0  0  0  0
  4 14  2  0  0  0  0
  5 15  2  0  0  0  0
  8  6  1  1  0  0  0
  6 26  1  0  0  0  0
  6 27  1  0  0  0  0
  9  7  1  6  0  0  0
  7 28  1  0  0  0  0
  7 29  1  0  0  0  0
  8  9  1  0  0  0  0
  8 10  1  0  0  0  0
  8 16  1  0  0  0  0
  9 11  1  0  0  0  0
  9 17  1  0  0  0  0
 10 12  1  0  0  0  0
 10 18  1  0  0  0  0
 10 19  1  0  0  0  0
 11 13  1  0  0  0  0
 11 20  1  0  0  0  0
 11 21  1  0  0  0  0
 12 13  1  0  0  0  0
 12 22  1  0  0  0  0
 12 23  1  0  0  0  0
 13 24  1  0  0  0  0
 13 25  1  0  0  0  0
 14 15  1  0  0  0  0
M  CHG  3   1   2   2  -1   3  -1
M  END
> <PUBCHEM_COMPOUND_CID>
9887054

> <PUBCHEM_COMPOUND_CANONICALIZED>
1

> <PUBCHEM_CACTVS_COMPLEXITY>
124

> <PUBCHEM_CACTVS_HBOND_ACCEPTOR>
6

> <PUBCHEM_CACTVS_HBOND_DONOR>
2

> <PUBCHEM_CACTVS_ROTATABLE_BOND>
0

> <PUBCHEM_CACTVS_SUBSKEYS>
AAADccBzOAAAAAAAAAAABAAAAAAAAAAAAAAwAAAAAAAAAAAAAAAAHgAQAAAACCjBgAQACABAAAAIAACQCAIAAAAAAAAAAIBAAAABQAIAgAAAAAAAEAAAAAEQAAAAAAAAAAAAAAAAAAAAAAAAQAAAAAAAAA==

> <PUBCHEM_IUPAC_OPENEYE_NAME>
(1R,2R)-cyclohexane-1,2-diamine;oxalate;platinum(2+)

> <PUBCHEM_IUPAC_CAS_NAME>
(1R,2R)-cyclohexane-1,2-diamine;oxalate;platinum(2+)

> <PUBCHEM_IUPAC_NAME_MARKUP>
(1<I>R</I>,2<I>R</I>)-cyclohexane-1,2-diamine;oxalate;platinum(2+)

> <PUBCHEM_IUPAC_NAME>
(1R,2R)-cyclohexane-1,2-diamine;oxalate;platinum(2+)

> <PUBCHEM_IUPAC_SYSTEMATIC_NAME>
(1R,2R)-cyclohexane-1,2-diamine;ethanedioate;platinum(2+)

> <PUBCHEM_IUPAC_TRADITIONAL_NAME>
[(1R,2R)-2-aminocyclohexyl]amine;oxalate;platinum(2+)

> <PUBCHEM_IUPAC_INCHI>
InChI=1S/C6H14N2.C2H2O4.Pt/c7-5-3-1-2-4-6(5)8;3-1(4)2(5)6;/h5-6H,1-4,7-8H2;(H,3,4)(H,5,6);/q;;+2/p-2/t5-,6-;;/m1../s1

> <PUBCHEM_IUPAC_INCHIKEY>
ZROHGHOFXNOHSO-BNTLRKBRSA-L

> <PUBCHEM_EXACT_MASS>
397.060151

> <PUBCHEM_MOLECULAR_FORMULA>
C8H14N2O4Pt

> <PUBCHEM_MOLECULAR_WEIGHT>
397.29

> <PUBCHEM_REFERENCE_STANDARDIZATION>
Bypass - this structure was created from CID 9887054

> <PUBCHEM_OPENEYE_CAN_SMILES>
C1CCC(C(C1)N)N.C(=O)(C(=O)[O-])[O-].[Pt+2]

> <PUBCHEM_OPENEYE_ISO_SMILES>
C1CC[C@H]([C@@H](C1)N)N.C(=O)(C(=O)[O-])[O-].[Pt+2]

> <PUBCHEM_CACTVS_TPSA>
132

> <PUBCHEM_MONOISOTOPIC_WEIGHT>
397.060151

> <PUBCHEM_TOTAL_CHARGE>
0

> <PUBCHEM_HEAVY_ATOM_COUNT>
15

> <PUBCHEM_ATOM_DEF_STEREO_COUNT>
2

> <PUBCHEM_ATOM_UDEF_STEREO_COUNT>
0

> <PUBCHEM_BOND_DEF_STEREO_COUNT>
0

> <PUBCHEM_BOND_UDEF_STEREO_COUNT>
0

> <PUBCHEM_ISOTOPIC_ATOM_COUNT>
0

> <PUBCHEM_COMPONENT_COUNT>
3

> <PUBCHEM_CACTVS_TAUTO_COUNT>
-1

> <PUBCHEM_COORDINATE_TYPE>
1
5
255

> <PUBCHEM_BONDANNOTATIONS>
8  6  5
9  7  6

$$$$
