9690109
     RDKit          2D

 19 20  0  0  1  0  0  0  0  0999 V2000
    3.7320    0.3450    0.0000 S   0  0  0  0  0  0  0  0  0  0  0  0
    2.8660   -0.1550    0.0000 O   0  0  0  0  0  0  0  0  0  0  0  0
    2.0000    1.3450    0.0000 O   0  0  0  0  0  0  0  0  0  0  0  0
    2.8660    2.8450    0.0000 N   0  0  0  0  0  0  0  0  0  0  0  0
    4.5981   -0.1550    0.0000 C   0  0  0  0  0  0  0  0  0  0  0  0
    4.5981   -1.1550    0.0000 C   0  0  0  0  0  0  0  0  0  0  0  0
    5.4641    0.3450    0.0000 C   0  0  0  0  0  0  0  0  0  0  0  0
    3.7320    1.3450    0.0000 C   0  0  0  0  0  0  0  0  0  0  0  0
    3.7320   -1.6550    0.0000 C   0  0  0  0  0  0  0  0  0  0  0  0
    6.3301   -0.1550    0.0000 C   0  0  0  0  0  0  0  0  0  0  0  0
    5.4641   -1.6550    0.0000 C   0  0  0  0  0  0  0  0  0  0  0  0
    5.4641    1.3450    0.0000 C   0  0  0  0  0  0  0  0  0  0  0  0
    3.7320   -2.6550    0.0000 C   0  0  0  0  0  0  0  0  0  0  0  0
    7.1962    0.3450    0.0000 C   0  0  0  0  0  0  0  0  0  0  0  0
    5.4641   -2.6550    0.0000 C   0  0  0  0  0  0  0  0  0  0  0  0
    6.3301    1.8450    0.0000 C   0  0  0  0  0  0  0  0  0  0  0  0
    4.5981   -3.1550    0.0000 C   0  0  0  0  0  0  0  0  0  0  0  0
    7.1962    1.3450    0.0000 C   0  0  0  0  0  0  0  0  0  0  0  0
    2.8660    1.8450    0.0000 C   0  0  0  0  0  0  0  0  0  0  0  0
  1  2  2  0
  1  5  1  0
  1  8  1  6
  3 19  2  0
  4 19  1  0
  5  6  1  0
  5  7  1  0
  6  9  2  0
  6 11  1  0
  7 10  2  0
  7 12  1  0
  8 19  1  0
  9 13  1  0
 10 14  1  0
 11 15  2  0
 12 16  2  0
 13 17  2  0
 14 18  2  0
 15 17  1  0
 16 18  1  0
M  END
>  <PUBCHEM_COMPOUND_CID>  (1) 
9690109

>  <PUBCHEM_COMPOUND_CANONICALIZED>  (1) 
1

>  <PUBCHEM_CACTVS_COMPLEXITY>  (1) 
302

>  <PUBCHEM_CACTVS_HBOND_ACCEPTOR>  (1) 
3

>  <PUBCHEM_CACTVS_HBOND_DONOR>  (1) 
1

>  <PUBCHEM_CACTVS_ROTATABLE_BOND>  (1) 
5

>  <PUBCHEM_CACTVS_SUBSKEYS>  (1) 
AAADccByMABAAAAAAAAAAAAAAAAAAAAAAAAwYAAAAAAAAAABQAAAHgQQAAAADACF2ACwAIBAAAqIAiFSEEBCAAAgABAIiAAAAIgIICKgERCAIAAgkAAoiAcAgMAOAAAAAAAAAAAAAAAAAAAAAAAAAAAAAA==

>  <PUBCHEM_IUPAC_OPENEYE_NAME>  (1) 
2-[(R)-benzhydrylsulfinyl]acetamide

>  <PUBCHEM_IUPAC_CAS_NAME>  (1) 
2-[(R)-(diphenylmethyl)sulfinyl]acetamide

>  <PUBCHEM_IUPAC_NAME_MARKUP>  (1) 
2-[(<I>R</I>)-benzhydrylsulfinyl]acetamide

>  <PUBCHEM_IUPAC_NAME>  (1) 
2-[(R)-benzhydrylsulfinyl]acetamide

>  <PUBCHEM_IUPAC_SYSTEMATIC_NAME>  (1) 
2-[(R)-(diphenylmethyl)sulfinyl]ethanamide

>  <PUBCHEM_IUPAC_TRADITIONAL_NAME>  (1) 
2-[(R)-benzhydrylsulfinyl]acetamide

>  <PUBCHEM_IUPAC_INCHI>  (1) 
InChI=1S/C15H15NO2S/c16-14(17)11-19(18)15(12-7-3-1-4-8-12)13-9-5-2-6-10-13/h1-10,15H,11H2,(H2,16,17)/t19-/m1/s1

>  <PUBCHEM_IUPAC_INCHIKEY>  (1) 
YFGHCGITMMYXAQ-LJQANCHMSA-N

>  <PUBCHEM_XLOGP3_AA>  (1) 
1.7

>  <PUBCHEM_EXACT_MASS>  (1) 
273.08234989

>  <PUBCHEM_MOLECULAR_FORMULA>  (1) 
C15H15NO2S

>  <PUBCHEM_MOLECULAR_WEIGHT>  (1) 
273.4

>  <PUBCHEM_OPENEYE_CAN_SMILES>  (1) 
C1=CC=C(C=C1)C(C2=CC=CC=C2)S(=O)CC(=O)N

>  <PUBCHEM_OPENEYE_ISO_SMILES>  (1) 
C1=CC=C(C=C1)C(C2=CC=CC=C2)[S@](=O)CC(=O)N

>  <PUBCHEM_CACTVS_TPSA>  (1) 
79.4

>  <PUBCHEM_MONOISOTOPIC_WEIGHT>  (1) 
273.08234989

>  <PUBCHEM_TOTAL_CHARGE>  (1) 
0

>  <PUBCHEM_HEAVY_ATOM_COUNT>  (1) 
19

>  <PUBCHEM_ATOM_DEF_STEREO_COUNT>  (1) 
1

>  <PUBCHEM_ATOM_UDEF_STEREO_COUNT>  (1) 
0

>  <PUBCHEM_BOND_DEF_STEREO_COUNT>  (1) 
0

>  <PUBCHEM_BOND_UDEF_STEREO_COUNT>  (1) 
0

>  <PUBCHEM_ISOTOPIC_ATOM_COUNT>  (1) 
0

>  <PUBCHEM_COMPONENT_COUNT>  (1) 
1

>  <PUBCHEM_CACTVS_TAUTO_COUNT>  (1) 
-1

>  <PUBCHEM_COORDINATE_TYPE>  (1) 
1
5
255

>  <PUBCHEM_BONDANNOTATIONS>  (1) 
1  8  6
10  14  8
11  15  8
12  16  8
13  17  8
14  18  8
15  17  8
16  18  8
6  11  8
6  9  8
7  10  8
7  12  8
9  13  8

$$$$
