91885449
     RDKit          2D

 86 85  0  0  1  0  0  0  0  0999 V2000
   12.1781    0.8660    0.0000 S   0  0  0  0  0  0  0  0  0  0  0  0
   19.5858   14.4616    0.0000 O   0  0  0  0  0  0  0  0  0  0  0  0
   22.1267   11.7410    0.0000 O   0  0  0  0  0  0  0  0  0  0  0  0
   15.8631   14.4616    0.0000 O   0  0  0  0  0  0  0  0  0  0  0  0
   13.3222   11.7410    0.0000 O   0  0  0  0  0  0  0  0  0  0  0  0
   21.8726    8.0270    0.0000 O   0  0  0  0  0  0  0  0  0  0  0  0
   12.9452    8.7672    0.0000 O   0  0  0  0  0  0  0  0  0  0  0  0
   17.1630    4.9626    0.0000 O   0  0  0  0  0  0  0  0  0  0  0  0
   18.9849    5.6777    0.0000 O   0  0  0  0  0  0  0  0  0  0  0  0
    9.2760    6.4141    0.0000 O   0  0  0  0  0  0  0  0  0  0  0  0
   15.2970    6.1846    0.0000 O   0  0  0  0  0  0  0  0  0  0  0  0
    9.5124    9.8701    0.0000 O   0  0  0  0  0  0  0  0  0  0  0  0
    8.2784    6.4823    0.0000 O   0  0  0  0  0  0  0  0  0  0  0  0
    4.8456    7.5852    0.0000 O   0  0  0  0  0  0  0  0  0  0  0  0
   13.0442    1.3660    0.0000 O   0  0  0  0  0  0  0  0  0  0  0  0
   11.3121    0.3660    0.0000 O   0  0  0  0  0  0  0  0  0  0  0  0
   11.6781    1.7320    0.0000 O   0  0  0  0  0  0  0  0  0  0  0  0
   12.6781    0.0000    0.0000 O   0  0  0  0  0  0  0  0  0  0  0  0
   20.0418   13.0248    0.0000 N   0  0  0  0  0  0  0  0  0  0  0  0
   17.2245   13.8142    0.0000 N   0  0  0  0  0  0  0  0  0  0  0  0
   21.3879   10.4270    0.0000 N   0  0  0  0  0  0  0  0  0  0  0  0
   14.7246   12.2940    0.0000 N   0  0  0  0  0  0  0  0  0  0  0  0
   13.0634   10.4952    0.0000 N   0  0  0  0  0  0  0  0  0  0  0  0
   20.4081    7.6701    0.0000 N   0  0  0  0  0  0  0  0  0  0  0  0
   15.0408    7.6701    0.0000 N   0  0  0  0  0  0  0  0  0  0  0  0
   17.7245    6.5044    0.0000 N   0  0  0  0  0  0  0  0  0  0  0  0
   10.9498    8.9037    0.0000 N   0  0  0  0  0  0  0  0  0  0  0  0
    8.3966    8.2103    0.0000 N   0  0  0  0  0  0  0  0  0  0  0  0
    6.2830    6.6188    0.0000 N   0  0  0  0  0  0  0  0  0  0  0  0
   13.1576   14.4175    0.0000 N   0  0  0  0  0  0  0  0  0  0  0  0
   23.9435    9.7686    0.0000 N   0  0  0  0  0  0  0  0  0  0  0  0
   21.6713    5.3529    0.0000 N   0  0  0  0  0  0  0  0  0  0  0  0
    9.6306   11.5981    0.0000 N   0  0  0  0  0  0  0  0  0  0  0  0
    4.9638    9.3132    0.0000 N   0  0  0  0  0  0  0  0  0  0  0  0
   18.2245   13.8142    0.0000 C   0  0  0  0  0  0  0  0  0  0  0  0
   20.7243   12.2940    0.0000 C   0  0  0  0  0  0  0  0  0  0  0  0
   18.3606   14.8049    0.0000 C   0  0  0  0  0  0  0  0  0  0  0  0
   21.5413   12.8707    0.0000 C   0  0  0  0  0  0  0  0  0  0  0  0
   17.5707   15.4181    0.0000 C   0  0  0  0  0  0  0  0  0  0  0  0
   21.4504   13.8665    0.0000 C   0  0  0  0  0  0  0  0  0  0  0  0
   19.1874   13.5444    0.0000 C   0  0  0  0  0  0  0  0  0  0  0  0
   15.4071   13.0248    0.0000 C   0  0  0  0  0  0  0  0  0  0  0  0
   21.1844   11.4061    0.0000 C   0  0  0  0  0  0  0  0  0  0  0  0
   21.3196    9.4293    0.0000 C   0  0  0  0  0  0  0  0  0  0  0  0
   16.2615   13.5444    0.0000 C   0  0  0  0  0  0  0  0  0  0  0  0
   14.0610   10.4270    0.0000 C   0  0  0  0  0  0  0  0  0  0  0  0
   17.7069   16.4088    0.0000 C   0  0  0  0  0  0  0  0  0  0  0  0
   16.6447   15.0407    0.0000 C   0  0  0  0  0  0  0  0  0  0  0  0
   14.7760   13.8005    0.0000 C   0  0  0  0  0  0  0  0  0  0  0  0
   22.2674   14.4432    0.0000 C   0  0  0  0  0  0  0  0  0  0  0  0
   20.5425   14.2857    0.0000 C   0  0  0  0  0  0  0  0  0  0  0  0
   14.1293    9.4293    0.0000 C   0  0  0  0  0  0  0  0  0  0  0  0
   22.2987    9.2259    0.0000 C   0  0  0  0  0  0  0  0  0  0  0  0
   14.2645   11.4061    0.0000 C   0  0  0  0  0  0  0  0  0  0  0  0
   19.6324    7.0390    0.0000 C   0  0  0  0  0  0  0  0  0  0  0  0
   20.9847    8.4871    0.0000 C   0  0  0  0  0  0  0  0  0  0  0  0
   11.5078    9.7336    0.0000 C   0  0  0  0  0  0  0  0  0  0  0  0
   14.4642    8.4871    0.0000 C   0  0  0  0  0  0  0  0  0  0  0  0
    2.1742    5.1638    0.0000 C   0  0  0  0  0  0  0  0  0  0  0  0
   16.7338    6.6406    0.0000 C   0  0  0  0  0  0  0  0  0  0  0  0
    3.1718    5.0955    0.0000 C   0  0  0  0  0  0  0  0  0  0  0  0
   13.7887   13.6418    0.0000 C   0  0  0  0  0  0  0  0  0  0  0  0
   12.5054    9.6654    0.0000 C   0  0  0  0  0  0  0  0  0  0  0  0
   20.1519    6.1846    0.0000 C   0  0  0  0  0  0  0  0  0  0  0  0
    3.7298    5.9254    0.0000 C   0  0  0  0  0  0  0  0  0  0  0  0
   11.0680   10.6317    0.0000 C   0  0  0  0  0  0  0  0  0  0  0  0
    9.3942    8.1421    0.0000 C   0  0  0  0  0  0  0  0  0  0  0  0
   22.9644    9.9721    0.0000 C   0  0  0  0  0  0  0  0  0  0  0  0
   18.7151    6.6406    0.0000 C   0  0  0  0  0  0  0  0  0  0  0  0
    1.6162    4.3339    0.0000 C   0  0  0  0  0  0  0  0  0  0  0  0
   16.4640    5.6777    0.0000 C   0  0  0  0  0  0  0  0  0  0  0  0
   15.8166    7.0390    0.0000 C   0  0  0  0  0  0  0  0  0  0  0  0
    6.8410    7.4487    0.0000 C   0  0  0  0  0  0  0  0  0  0  0  0
    4.7274    5.8572    0.0000 C   0  0  0  0  0  0  0  0  0  0  0  0
    9.9522    8.9720    0.0000 C   0  0  0  0  0  0  0  0  0  0  0  0
    9.8340    7.2440    0.0000 C   0  0  0  0  0  0  0  0  0  0  0  0
    1.7344    6.0619    0.0000 C   0  0  0  0  0  0  0  0  0  0  0  0
   21.1517    6.2074    0.0000 C   0  0  0  0  0  0  0  0  0  0  0  0
    6.4012    8.3468    0.0000 C   0  0  0  0  0  0  0  0  0  0  0  0
   10.0704   10.7000    0.0000 C   0  0  0  0  0  0  0  0  0  0  0  0
    7.8386    7.3804    0.0000 C   0  0  0  0  0  0  0  0  0  0  0  0
    5.2854    6.6870    0.0000 C   0  0  0  0  0  0  0  0  0  0  0  0
    0.6186    4.4021    0.0000 C   0  0  0  0  0  0  0  0  0  0  0  0
   15.4952    5.4299    0.0000 C   0  0  0  0  0  0  0  0  0  0  0  0
   10.8316    7.1757    0.0000 C   0  0  0  0  0  0  0  0  0  0  0  0
    5.4036    8.4150    0.0000 C   0  0  0  0  0  0  0  0  0  0  0  0
  1 15  1  0
  1 16  1  0
  1 17  2  0
  1 18  2  0
  2 41  2  0
  3 43  2  0
  4 45  2  0
  5 54  2  0
  6 56  2  0
  7 63  2  0
 71  8  1  0
  9 69  2  0
 76 10  1  0
 11 72  2  0
 12 75  2  0
 13 81  2  0
 14 82  2  0
 19 36  1  0
 19 41  1  0
 20 35  1  0
 20 45  1  0
 21 43  1  0
 21 44  1  0
 22 42  1  0
 22 54  1  0
 46 23  1  6
 23 63  1  0
 24 55  1  0
 24 56  1  0
 25 58  1  0
 25 72  1  0
 60 26  1  1
 26 69  1  0
 57 27  1  0
 27 75  1  0
 67 28  1  6
 28 81  1  0
 73 29  1  0
 29 82  1  0
 30 62  1  0
 31 68  1  0
 32 78  1  0
 33 80  1  0
 34 86  1  0
 35 37  1  6
 35 41  1  0
 36 38  1  1
 36 43  1  0
 37 39  1  0
 38 40  1  0
 39 47  1  0
 39 48  1  0
 40 50  1  0
 40 51  1  0
 42 45  1  0
 42 49  1  1
 44 53  1  1
 44 56  1  0
 46 52  1  0
 46 54  1  0
 49 62  1  0
 52 58  1  0
 53 68  1  0
 55 64  1  1
 55 69  1  0
 57 63  1  0
 57 66  1  1
 59 61  1  0
 59 70  1  0
 59 77  1  0
 60 71  1  0
 60 72  1  0
 61 65  1  0
 64 78  1  0
 65 74  1  0
 66 80  1  0
 67 75  1  0
 67 76  1  0
 70 83  1  0
 71 84  1  6
 73 79  1  1
 73 81  1  0
 74 82  1  0
 76 85  1  1
 79 86  1  0
M  END
>  <PUBCHEM_COMPOUND_CID>  (1) 
91885449

>  <PUBCHEM_COMPOUND_CANONICALIZED>  (1) 
1

>  <PUBCHEM_CACTVS_COMPLEXITY>  (1) 
2130

>  <PUBCHEM_CACTVS_HBOND_ACCEPTOR>  (1) 
22

>  <PUBCHEM_CACTVS_HBOND_DONOR>  (1) 
20

>  <PUBCHEM_CACTVS_ROTATABLE_BOND>  (1) 
28

>  <PUBCHEM_CACTVS_SUBSKEYS>  (1) 
AAADcfB//gBAAAAAAAAAAAAAAAAAAAAAAAAAAAAAAAAAAAAAAAAAHgAQCAAADTzhgAYCAALAAoAIAAEQEDAAAAAAAAAAAIGIAAACUBYAwCAUQAACNgCQAAEciACOAAAAAAAAAAAAAAAAAAAAAAAAAAAAAA==

>  <PUBCHEM_IUPAC_OPENEYE_NAME>  (1) 
N-[(1S)-3-amino-1-[[(1S,2R)-1-[[(1S)-3-amino-1-[[(3S,6S,9S,12S,15R,18S,21S)-6,9,18-tris(2-aminoethyl)-3-[(1R)-1-hydroxyethyl]-12,15-diisobutyl-2,5,8,11,14,17,20-heptaoxo-1,4,7,10,13,16,19-heptazacyclotricos-21-yl]carbamoyl]propyl]carbamoyl]-2-hydroxy-propyl]carbamoyl]propyl]-5-methyl-heptanamide;sulfuric acid

>  <PUBCHEM_IUPAC_CAS_NAME>  (1) 
N-[(2S)-4-amino-1-[[(2S,3R)-1-[[(2S)-4-amino-1-oxo-1-[[(3S,6S,9S,12S,15R,18S,21S)-6,9,18-tris(2-aminoethyl)-3-[(1R)-1-hydroxyethyl]-12,15-bis(2-methylpropyl)-2,5,8,11,14,17,20-heptaoxo-1,4,7,10,13,16,19-heptazacyclotricos-21-yl]amino]butan-2-yl]amino]-3-hydroxy-1-oxobutan-2-yl]amino]-1-oxobutan-2-yl]-5-methylheptanamide;sulfuric acid

>  <PUBCHEM_IUPAC_NAME_MARKUP>  (1) 
<I>N</I>-[(2<I>S</I>)-4-amino-1-[[(2<I>S</I>,3<I>R</I>)-1-[[(2<I>S</I>)-4-amino-1-oxo-1-[[(3<I>S</I>,6<I>S</I>,9<I>S</I>,12<I>S</I>,15<I>R</I>,18<I>S</I>,21<I>S</I>)-6,9,18-tris(2-aminoethyl)-3-[(1<I>R</I>)-1-hydroxyethyl]-12,15-bis(2-methylpropyl)-2,5,8,11,14,17,20-heptaoxo-1,4,7,10,13,16,19-heptazacyclotricos-21-yl]amino]butan-2-yl]amino]-3-hydroxy-1-oxobutan-2-yl]amino]-1-oxobutan-2-yl]-5-methylheptanamide;sulfuric acid

>  <PUBCHEM_IUPAC_NAME>  (1) 
N-[(2S)-4-amino-1-[[(2S,3R)-1-[[(2S)-4-amino-1-oxo-1-[[(3S,6S,9S,12S,15R,18S,21S)-6,9,18-tris(2-aminoethyl)-3-[(1R)-1-hydroxyethyl]-12,15-bis(2-methylpropyl)-2,5,8,11,14,17,20-heptaoxo-1,4,7,10,13,16,19-heptazacyclotricos-21-yl]amino]butan-2-yl]amino]-3-hydroxy-1-oxobutan-2-yl]amino]-1-oxobutan-2-yl]-5-methylheptanamide;sulfuric acid

>  <PUBCHEM_IUPAC_SYSTEMATIC_NAME>  (1) 
N-[(2S)-4-azanyl-1-[[(2S,3R)-1-[[(2S)-4-azanyl-1-oxidanylidene-1-[[(3S,6S,9S,12S,15R,18S,21S)-6,9,18-tris(2-azanylethyl)-12,15-bis(2-methylpropyl)-3-[(1R)-1-oxidanylethyl]-2,5,8,11,14,17,20-heptakis(oxidanylidene)-1,4,7,10,13,16,19-heptazacyclotricos-21-yl]amino]butan-2-yl]amino]-3-oxidanyl-1-oxidanylidene-butan-2-yl]amino]-1-oxidanylidene-butan-2-yl]-5-methyl-heptanamide;sulfuric acid

>  <PUBCHEM_IUPAC_TRADITIONAL_NAME>  (1) 
N-[(1S)-3-amino-1-[[(1S,2R)-1-[[(1S)-3-amino-1-[[(3S,6S,9S,12S,15R,18S,21S)-6,9,18-tris(2-aminoethyl)-3-[(1R)-1-hydroxyethyl]-12,15-diisobutyl-2,5,8,11,14,17,20-heptaketo-1,4,7,10,13,16,19-heptazacyclotricos-21-yl]carbamoyl]propyl]carbamoyl]-2-hydroxy-propyl]carbamoyl]propyl]-5-methyl-enanthamide;sulfuric acid

>  <PUBCHEM_IUPAC_INCHI>  (1) 
InChI=1S/C52H98N16O13.H2O4S/c1-9-29(6)11-10-12-40(71)59-32(13-19-53)47(76)68-42(31(8)70)52(81)64-35(16-22-56)44(73)63-37-18-24-58-51(80)41(30(7)69)67-48(77)36(17-23-57)61-43(72)33(14-20-54)62-49(78)38(25-27(2)3)66-50(79)39(26-28(4)5)65-45(74)34(15-21-55)60-46(37)75;1-5(2,3)4/h27-39,41-42,69-70H,9-26,53-57H2,1-8H3,(H,58,80)(H,59,71)(H,60,75)(H,61,72)(H,62,78)(H,63,73)(H,64,81)(H,65,74)(H,66,79)(H,67,77)(H,68,76);(H2,1,2,3,4)/t29?,30-,31-,32+,33+,34+,35+,36+,37+,38+,39-,41+,42+;/m1./s1

>  <PUBCHEM_IUPAC_INCHIKEY>  (1) 
VEXVWZFRWNZWJX-NBKAJXASSA-N

>  <PUBCHEM_EXACT_MASS>  (1) 
1252.71730696

>  <PUBCHEM_MOLECULAR_FORMULA>  (1) 
C52H100N16O17S

>  <PUBCHEM_MOLECULAR_WEIGHT>  (1) 
1253.5

>  <PUBCHEM_OPENEYE_CAN_SMILES>  (1) 
CCC(C)CCCC(=O)NC(CCN)C(=O)NC(C(C)O)C(=O)NC(CCN)C(=O)NC1CCNC(=O)C(NC(=O)C(NC(=O)C(NC(=O)C(NC(=O)C(NC(=O)C(NC1=O)CCN)CC(C)C)CC(C)C)CCN)CCN)C(C)O.OS(=O)(=O)O

>  <PUBCHEM_OPENEYE_ISO_SMILES>  (1) 
CCC(C)CCCC(=O)N[C@@H](CCN)C(=O)N[C@@H]([C@@H](C)O)C(=O)N[C@@H](CCN)C(=O)N[C@H]1CCNC(=O)[C@@H](NC(=O)[C@@H](NC(=O)[C@@H](NC(=O)[C@@H](NC(=O)[C@H](NC(=O)[C@@H](NC1=O)CCN)CC(C)C)CC(C)C)CCN)CCN)[C@@H](C)O.OS(=O)(=O)O

>  <PUBCHEM_CACTVS_TPSA>  (1) 
574

>  <PUBCHEM_MONOISOTOPIC_WEIGHT>  (1) 
1252.71730696

>  <PUBCHEM_TOTAL_CHARGE>  (1) 
0

>  <PUBCHEM_HEAVY_ATOM_COUNT>  (1) 
86

>  <PUBCHEM_ATOM_DEF_STEREO_COUNT>  (1) 
12

>  <PUBCHEM_ATOM_UDEF_STEREO_COUNT>  (1) 
1

>  <PUBCHEM_BOND_DEF_STEREO_COUNT>  (1) 
0

>  <PUBCHEM_BOND_UDEF_STEREO_COUNT>  (1) 
0

>  <PUBCHEM_ISOTOPIC_ATOM_COUNT>  (1) 
0

>  <PUBCHEM_COMPONENT_COUNT>  (1) 
2

>  <PUBCHEM_CACTVS_TAUTO_COUNT>  (1) 
1001

>  <PUBCHEM_COORDINATE_TYPE>  (1) 
1
5
255

>  <PUBCHEM_BONDANNOTATIONS>  (1) 
76  10  5
46  23  6
57  27  5
67  28  6
73  29  5
35  37  6
36  38  5
42  49  5
44  53  5
55  64  5
59  77  3
60  126  6
71  8  6

$$$$
