6526396
     RDKit          2D

 37 39  0  0  1  0  0  0  0  0999 V2000
    5.4641   -2.5740    0.0000 S   0  0  0  0  0  0  0  0  0  0  0  0
   12.2983   -3.0696    0.0000 S   0  0  0  0  0  0  0  0  0  0  0  0
    8.0441   -0.3613    0.0000 O   0  0  0  0  0  0  0  0  0  0  0  0
    4.5981    0.9260    0.0000 O   0  0  0  0  0  0  0  0  0  0  0  0
    2.8660   -1.0740    0.0000 O   0  0  0  0  0  0  0  0  0  0  0  0
    6.3301    0.9260    0.0000 O   0  0  0  0  0  0  0  0  0  0  0  0
    9.2713   -1.5645    0.0000 O   0  0  0  0  0  0  0  0  0  0  0  0
    3.7320    2.4260    0.0000 O   0  0  0  0  0  0  0  0  0  0  0  0
    8.4889   -4.4606    0.0000 O   0  0  0  0  0  0  0  0  0  0  0  0
    2.8660    3.9260    0.0000 O   0  0  0  0  0  0  0  0  0  0  0  0
    4.5981    3.9260    0.0000 O   0  0  0  0  0  0  0  0  0  0  0  0
    6.3301   -1.0740    0.0000 N   0  0  0  0  0  0  0  0  0  0  0  0
    8.0441   -2.7867    0.0000 N   0  0  0  0  0  0  0  0  0  0  0  0
    9.4554   -4.2038    0.0000 N   0  0  0  0  0  0  0  0  0  0  0  0
   11.0429   -2.0487    0.0000 N   0  0  0  0  0  0  0  0  0  0  0  0
   12.6723   -1.3273    0.0000 N   0  0  0  0  0  0  0  0  0  0  0  0
    6.3301   -2.0740    0.0000 C   0  0  0  0  0  0  0  0  0  0  0  0
    7.3384   -2.0781    0.0000 C   0  0  0  0  0  0  0  0  0  0  0  0
    7.3384   -1.0698    0.0000 C   0  0  0  0  0  0  0  0  0  0  0  0
    5.4641   -0.5740    0.0000 C   0  0  0  0  0  0  0  0  0  0  0  0
    4.5981   -1.0740    0.0000 C   0  0  0  0  0  0  0  0  0  0  0  0
    4.5981   -2.0740    0.0000 C   0  0  0  0  0  0  0  0  0  0  0  0
    3.7320   -0.5740    0.0000 C   0  0  0  0  0  0  0  0  0  0  0  0
    5.4641    0.4260    0.0000 C   0  0  0  0  0  0  0  0  0  0  0  0
    9.0105   -2.5298    0.0000 C   0  0  0  0  0  0  0  0  0  0  0  0
    9.7162   -3.2384    0.0000 C   0  0  0  0  0  0  0  0  0  0  0  0
    4.5981    1.9260    0.0000 C   0  0  0  0  0  0  0  0  0  0  0  0
    2.0000   -0.5740    0.0000 C   0  0  0  0  0  0  0  0  0  0  0  0
   10.6826   -2.9816    0.0000 C   0  0  0  0  0  0  0  0  0  0  0  0
    5.4641    2.4260    0.0000 C   0  0  0  0  0  0  0  0  0  0  0  0
   11.4585   -3.6125    0.0000 C   0  0  0  0  0  0  0  0  0  0  0  0
   12.0414   -2.1031    0.0000 C   0  0  0  0  0  0  0  0  0  0  0  0
    3.7320    3.4260    0.0000 C   0  0  0  0  0  0  0  0  0  0  0  0
    2.8660    4.9260    0.0000 C   0  0  0  0  0  0  0  0  0  0  0  0
    8.2281   -5.4260    0.0000 C   0  0  0  0  0  0  0  0  0  0  0  0
    2.0000    5.4260    0.0000 C   0  0  0  0  0  0  0  0  0  0  0  0
    3.7320    5.4260    0.0000 C   0  0  0  0  0  0  0  0  0  0  0  0
 17  1  1  1
  1 22  1  0
  2 31  1  0
  2 32  1  0
  3 19  2  0
  4 24  1  0
  4 27  1  0
  5 23  1  0
  5 28  1  0
  6 24  2  0
  7 25  2  0
  8 27  1  0
  8 33  1  0
  9 14  1  0
  9 35  1  0
 10 33  1  0
 10 34  1  0
 11 33  2  0
 12 17  1  0
 12 19  1  0
 12 20  1  0
 18 13  1  1
 13 25  1  0
 14 26  2  0
 15 29  1  0
 15 32  2  0
 16 32  1  0
 17 18  1  0
 18 19  1  0
 20 21  2  0
 20 24  1  0
 21 22  1  0
 21 23  1  0
 25 26  1  0
 26 29  1  0
 27 30  1  0
 29 31  2  0
 34 36  1  0
 34 37  1  0
M  END
>  <PUBCHEM_COMPOUND_CID>  (1) 
6526396

>  <PUBCHEM_COMPOUND_CANONICALIZED>  (1) 
1

>  <PUBCHEM_CACTVS_COMPLEXITY>  (1) 
976

>  <PUBCHEM_CACTVS_HBOND_ACCEPTOR>  (1) 
14

>  <PUBCHEM_CACTVS_HBOND_DONOR>  (1) 
2

>  <PUBCHEM_CACTVS_ROTATABLE_BOND>  (1) 
13

>  <PUBCHEM_CACTVS_SUBSKEYS>  (1) 
AAADceB7vABgAAAAAAAAAAAAAABYAWAAAAAgAAAAAAAQAAABgAAAHgQUAAAADDz11gejmRPYFAisAwXyfAAA8KlhCjkACJW4IFiSZJgg5CE3EAAAFgK0ISAAAAAAAAAAAAAAAAAAAAAAAAAAAAAAAAAAAA==

>  <PUBCHEM_IUPAC_OPENEYE_NAME>  (1) 
1-isopropoxycarbonyloxyethyl (6R,7R)-7-[[(2Z)-2-(2-aminothiazol-4-yl)-2-methoxyimino-acetyl]amino]-3-(methoxymethyl)-8-oxo-5-thia-1-azabicyclo[4.2.0]oct-2-ene-2-carboxylate

>  <PUBCHEM_IUPAC_CAS_NAME>  (1) 
(6R,7R)-7-[[(2Z)-2-(2-amino-4-thiazolyl)-2-methoxyimino-1-oxoethyl]amino]-3-(methoxymethyl)-8-oxo-5-thia-1-azabicyclo[4.2.0]oct-2-ene-2-carboxylic acid 1-[oxo(propan-2-yloxy)methoxy]ethyl ester

>  <PUBCHEM_IUPAC_NAME_MARKUP>  (1) 
1-propan-2-yloxycarbonyloxyethyl (6<I>R</I>,7<I>R</I>)-7-[[(2<I>Z</I>)-2-(2-amino-1,3-thiazol-4-yl)-2-methoxyiminoacetyl]amino]-3-(methoxymethyl)-8-oxo-5-thia-1-azabicyclo[4.2.0]oct-2-ene-2-carboxylate

>  <PUBCHEM_IUPAC_NAME>  (1) 
1-propan-2-yloxycarbonyloxyethyl (6R,7R)-7-[[(2Z)-2-(2-amino-1,3-thiazol-4-yl)-2-methoxyiminoacetyl]amino]-3-(methoxymethyl)-8-oxo-5-thia-1-azabicyclo[4.2.0]oct-2-ene-2-carboxylate

>  <PUBCHEM_IUPAC_SYSTEMATIC_NAME>  (1) 
1-propan-2-yloxycarbonyloxyethyl (6R,7R)-7-[[(2Z)-2-(2-azanyl-1,3-thiazol-4-yl)-2-methoxyimino-ethanoyl]amino]-3-(methoxymethyl)-8-oxidanylidene-5-thia-1-azabicyclo[4.2.0]oct-2-ene-2-carboxylate

>  <PUBCHEM_IUPAC_TRADITIONAL_NAME>  (1) 
(6R,7R)-7-[[(2Z)-2-(2-aminothiazol-4-yl)-2-methyloximino-acetyl]amino]-8-keto-3-(methoxymethyl)-5-thia-1-azabicyclo[4.2.0]oct-2-ene-2-carboxylic acid 1-isopropoxycarbonyloxyethyl ester

>  <PUBCHEM_IUPAC_INCHI>  (1) 
InChI=1S/C21H27N5O9S2/c1-9(2)33-21(30)35-10(3)34-19(29)15-11(6-31-4)7-36-18-14(17(28)26(15)18)24-16(27)13(25-32-5)12-8-37-20(22)23-12/h8-10,14,18H,6-7H2,1-5H3,(H2,22,23)(H,24,27)/b25-13-/t10?,14-,18-/m1/s1

>  <PUBCHEM_IUPAC_INCHIKEY>  (1) 
LTINZAODLRIQIX-FBXRGJNPSA-N

>  <PUBCHEM_XLOGP3>  (1) 
0.6

>  <PUBCHEM_EXACT_MASS>  (1) 
557.12501980

>  <PUBCHEM_MOLECULAR_FORMULA>  (1) 
C21H27N5O9S2

>  <PUBCHEM_MOLECULAR_WEIGHT>  (1) 
557.6

>  <PUBCHEM_OPENEYE_CAN_SMILES>  (1) 
CC(C)OC(=O)OC(C)OC(=O)C1=C(CSC2N1C(=O)C2NC(=O)C(=NOC)C3=CSC(=N3)N)COC

>  <PUBCHEM_OPENEYE_ISO_SMILES>  (1) 
CC(C)OC(=O)OC(C)OC(=O)C1=C(CS[C@H]2N1C(=O)[C@H]2NC(=O)/C(=N\OC)/C3=CSC(=N3)N)COC

>  <PUBCHEM_CACTVS_TPSA>  (1) 
235

>  <PUBCHEM_MONOISOTOPIC_WEIGHT>  (1) 
557.12501980

>  <PUBCHEM_TOTAL_CHARGE>  (1) 
0

>  <PUBCHEM_HEAVY_ATOM_COUNT>  (1) 
37

>  <PUBCHEM_ATOM_DEF_STEREO_COUNT>  (1) 
2

>  <PUBCHEM_ATOM_UDEF_STEREO_COUNT>  (1) 
1

>  <PUBCHEM_BOND_DEF_STEREO_COUNT>  (1) 
1

>  <PUBCHEM_BOND_UDEF_STEREO_COUNT>  (1) 
0

>  <PUBCHEM_ISOTOPIC_ATOM_COUNT>  (1) 
0

>  <PUBCHEM_COMPONENT_COUNT>  (1) 
1

>  <PUBCHEM_CACTVS_TAUTO_COUNT>  (1) 
-1

>  <PUBCHEM_COORDINATE_TYPE>  (1) 
1
5
255

>  <PUBCHEM_BONDANNOTATIONS>  (1) 
18  13  5
15  29  8
15  32  8
17  38  6
2  31  8
2  32  8
27  30  3
29  31  8

$$$$
