54900
     RDKit          2D

 35 38  0  0  0  0  0  0  0  0999 V2000
   10.5144    5.4872    0.0000 Cl  0  0  0  0  0  0  0  0  0  0  0  0
    3.6220    0.8153    0.0000 S   0  0  0  0  0  0  0  0  0  0  0  0
    1.2613    6.3525    0.0000 O   0  0  0  0  0  0  0  0  0  0  0  0
    4.9112    3.5815    0.0000 O   0  0  0  0  0  0  0  0  0  0  0  0
    0.0777    0.6200    0.0000 O   0  0  0  0  0  0  0  0  0  0  0  0
    8.2056    1.6200    0.0000 O   0  0  0  0  0  0  0  0  0  0  0  0
    1.2148    8.9978    0.0000 N   0  0  0  0  0  0  0  0  0  0  0  0
    2.1933    9.2040    0.0000 C   0  0  0  0  0  0  0  0  0  0  0  0
    0.5469    9.7421    0.0000 C   0  0  0  0  0  0  0  0  0  0  0  0
    2.5039   10.1545    0.0000 C   0  0  0  0  0  0  0  0  0  0  0  0
    0.8576   10.6926    0.0000 C   0  0  0  0  0  0  0  0  0  0  0  0
    1.8361   10.8988    0.0000 C   0  0  0  0  0  0  0  0  0  0  0  0
    0.9041    8.0473    0.0000 C   0  0  0  0  0  0  0  0  0  0  0  0
    1.5720    7.3030    0.0000 C   0  0  0  0  0  0  0  0  0  0  0  0
    1.9291    5.6082    0.0000 C   0  0  0  0  0  0  0  0  0  0  0  0
    3.6220    2.4247    0.0000 C   0  0  0  0  0  0  0  0  0  0  0  0
    2.6758    2.1200    0.0000 C   0  0  0  0  0  0  0  0  0  0  0  0
    4.2056    1.6200    0.0000 C   0  0  0  0  0  0  0  0  0  0  0  0
    3.2648    4.1196    0.0000 C   0  0  0  0  0  0  0  0  0  0  0  0
    2.6758    1.1200    0.0000 C   0  0  0  0  0  0  0  0  0  0  0  0
    3.9327    3.3752    0.0000 C   0  0  0  0  0  0  0  0  0  0  0  0
    1.6185    4.6576    0.0000 C   0  0  0  0  0  0  0  0  0  0  0  0
    2.9076    5.8144    0.0000 C   0  0  0  0  0  0  0  0  0  0  0  0
    2.2863    3.9133    0.0000 C   0  0  0  0  0  0  0  0  0  0  0  0
    3.5755    5.0701    0.0000 C   0  0  0  0  0  0  0  0  0  0  0  0
    5.2056    1.6200    0.0000 C   0  0  0  0  0  0  0  0  0  0  0  0
    1.8098    2.6200    0.0000 C   0  0  0  0  0  0  0  0  0  0  0  0
    1.8098    0.6200    0.0000 C   0  0  0  0  0  0  0  0  0  0  0  0
    0.9437    2.1200    0.0000 C   0  0  0  0  0  0  0  0  0  0  0  0
    0.9437    1.1200    0.0000 C   0  0  0  0  0  0  0  0  0  0  0  0
    5.7056    2.4860    0.0000 C   0  0  0  0  0  0  0  0  0  0  0  0
    5.7056    0.7540    0.0000 C   0  0  0  0  0  0  0  0  0  0  0  0
    6.7056    2.4860    0.0000 C   0  0  0  0  0  0  0  0  0  0  0  0
    6.7056    0.7540    0.0000 C   0  0  0  0  0  0  0  0  0  0  0  0
    7.2056    1.6200    0.0000 C   0  0  0  0  0  0  0  0  0  0  0  0
  2 18  1  0
  2 20  1  0
  3 14  1  0
  3 15  1  0
  4 21  2  0
  5 30  1  0
  6 35  1  0
  7  8  1  0
  7  9  1  0
  7 13  1  0
  8 10  1  0
  9 11  1  0
 10 12  1  0
 11 12  1  0
 13 14  1  0
 15 22  2  0
 15 23  1  0
 16 17  1  0
 16 18  2  0
 16 21  1  0
 17 20  2  0
 17 27  1  0
 18 26  1  0
 19 21  1  0
 19 24  2  0
 19 25  1  0
 20 28  1  0
 22 24  1  0
 23 25  2  0
 26 31  2  0
 26 32  1  0
 27 29  2  0
 28 30  2  0
 29 30  1  0
 31 33  1  0
 32 34  2  0
 33 35  2  0
 34 35  1  0
M  END
>  <PUBCHEM_COMPOUND_CID>  (1) 
54900

>  <PUBCHEM_COMPOUND_CANONICALIZED>  (1) 
1

>  <PUBCHEM_CACTVS_COMPLEXITY>  (1) 
655

>  <PUBCHEM_CACTVS_HBOND_ACCEPTOR>  (1) 
6

>  <PUBCHEM_CACTVS_HBOND_DONOR>  (1) 
3

>  <PUBCHEM_CACTVS_ROTATABLE_BOND>  (1) 
7

>  <PUBCHEM_CACTVS_SUBSKEYS>  (1) 
AAADceB6OABEAAAAAAAAAAAAAAAAASAAAAA8YMEAAAAAAEgB9AAAHgQACAAADATh2AYwB8MABgiMAqBSAAADCIAkKBBIiBkOCMgOJjKmtRqHeSCkwBG4uYeYzPDOoAAABAAEAABAAAAIAAgAAAAAAAAAAA==

>  <PUBCHEM_IUPAC_OPENEYE_NAME>  (1) 
[6-hydroxy-2-(4-hydroxyphenyl)benzothiophen-3-yl]-[4-[2-(1-piperidyl)ethoxy]phenyl]methanone;hydrochloride

>  <PUBCHEM_IUPAC_CAS_NAME>  (1) 
[6-hydroxy-2-(4-hydroxyphenyl)-1-benzothiophen-3-yl]-[4-[2-(1-piperidinyl)ethoxy]phenyl]methanone;hydrochloride

>  <PUBCHEM_IUPAC_NAME_MARKUP>  (1) 
[6-hydroxy-2-(4-hydroxyphenyl)-1-benzothiophen-3-yl]-[4-(2-piperidin-1-ylethoxy)phenyl]methanone;hydrochloride

>  <PUBCHEM_IUPAC_NAME>  (1) 
[6-hydroxy-2-(4-hydroxyphenyl)-1-benzothiophen-3-yl]-[4-(2-piperidin-1-ylethoxy)phenyl]methanone;hydrochloride

>  <PUBCHEM_IUPAC_SYSTEMATIC_NAME>  (1) 
[2-(4-hydroxyphenyl)-6-oxidanyl-1-benzothiophen-3-yl]-[4-(2-piperidin-1-ylethoxy)phenyl]methanone;hydrochloride

>  <PUBCHEM_IUPAC_TRADITIONAL_NAME>  (1) 
[6-hydroxy-2-(4-hydroxyphenyl)benzothiophen-3-yl]-[4-(2-piperidinoethoxy)phenyl]methanone;hydrochloride

>  <PUBCHEM_IUPAC_INCHI>  (1) 
InChI=1S/C28H27NO4S.ClH/c30-21-8-4-20(5-9-21)28-26(24-13-10-22(31)18-25(24)34-28)27(32)19-6-11-23(12-7-19)33-17-16-29-14-2-1-3-15-29;/h4-13,18,30-31H,1-3,14-17H2;1H

>  <PUBCHEM_IUPAC_INCHIKEY>  (1) 
BKXVVCILCIUCLG-UHFFFAOYSA-N

>  <PUBCHEM_EXACT_MASS>  (1) 
509.1427572

>  <PUBCHEM_MOLECULAR_FORMULA>  (1) 
C28H28ClNO4S

>  <PUBCHEM_MOLECULAR_WEIGHT>  (1) 
510.0

>  <PUBCHEM_OPENEYE_CAN_SMILES>  (1) 
C1CCN(CC1)CCOC2=CC=C(C=C2)C(=O)C3=C(SC4=C3C=CC(=C4)O)C5=CC=C(C=C5)O.Cl

>  <PUBCHEM_OPENEYE_ISO_SMILES>  (1) 
C1CCN(CC1)CCOC2=CC=C(C=C2)C(=O)C3=C(SC4=C3C=CC(=C4)O)C5=CC=C(C=C5)O.Cl

>  <PUBCHEM_CACTVS_TPSA>  (1) 
98.2

>  <PUBCHEM_MONOISOTOPIC_WEIGHT>  (1) 
509.1427572

>  <PUBCHEM_TOTAL_CHARGE>  (1) 
0

>  <PUBCHEM_HEAVY_ATOM_COUNT>  (1) 
35

>  <PUBCHEM_ATOM_DEF_STEREO_COUNT>  (1) 
0

>  <PUBCHEM_ATOM_UDEF_STEREO_COUNT>  (1) 
0

>  <PUBCHEM_BOND_DEF_STEREO_COUNT>  (1) 
0

>  <PUBCHEM_BOND_UDEF_STEREO_COUNT>  (1) 
0

>  <PUBCHEM_ISOTOPIC_ATOM_COUNT>  (1) 
0

>  <PUBCHEM_COMPONENT_COUNT>  (1) 
2

>  <PUBCHEM_CACTVS_TAUTO_COUNT>  (1) 
-1

>  <PUBCHEM_COORDINATE_TYPE>  (1) 
1
5
255

>  <PUBCHEM_BONDANNOTATIONS>  (1) 
15  22  8
15  23  8
16  17  8
16  18  8
17  20  8
17  27  8
19  24  8
19  25  8
2  18  8
2  20  8
20  28  8
22  24  8
23  25  8
26  31  8
26  32  8
27  29  8
28  30  8
29  30  8
31  33  8
32  34  8
33  35  8
34  35  8

$$$$
