60934
     RDKit          2D

 54 57  0  0  1  0  0  0  0  0999 V2000
    5.7665    1.0369    0.0000 S   0  0  0  0  0  0  0  0  0  0  0  0
    7.5319   12.0722    0.0000 O   0  0  0  0  0  0  0  0  0  0  0  0
    5.7998    9.0722    0.0000 O   0  0  0  0  0  0  0  0  0  0  0  0
    5.7998    8.0722    0.0000 O   0  0  0  0  0  0  0  0  0  0  0  0
    6.6659    4.5722    0.0000 O   0  0  0  0  0  0  0  0  0  0  0  0
    4.9338    7.5722    0.0000 O   0  0  0  0  0  0  0  0  0  0  0  0
    6.6325    1.5369    0.0000 O   0  0  0  0  0  0  0  0  0  0  0  0
    5.2665    1.9030    0.0000 O   0  0  0  0  0  0  0  0  0  0  0  0
    6.2665    0.1709    0.0000 O   0  0  0  0  0  0  0  0  0  0  0  0
    5.7998   11.0722    0.0000 N   0  0  0  0  0  0  0  0  0  0  0  0
    6.6659   13.5722    0.0000 N   0  0  0  0  0  0  0  0  0  0  0  0
    7.5319    8.0722    0.0000 N   0  0  0  0  0  0  0  0  0  0  0  0
    5.7998    6.0722    0.0000 N   0  0  0  0  0  0  0  0  0  0  0  0
    8.3979    4.5722    0.0000 N   0  0  0  0  0  0  0  0  0  0  0  0
    3.2018    6.5722    0.0000 N   0  0  0  0  0  0  0  0  0  0  0  0
    4.0678   12.0722    0.0000 C   0  0  0  0  0  0  0  0  0  0  0  0
    4.0678   11.0722    0.0000 C   0  0  0  0  0  0  0  0  0  0  0  0
    4.9338   12.5722    0.0000 C   0  0  0  0  0  0  0  0  0  0  0  0
    4.9338   10.5722    0.0000 C   0  0  0  0  0  0  0  0  0  0  0  0
    3.1738   12.6068    0.0000 C   0  0  0  0  0  0  0  0  0  0  0  0
    3.1738   10.5375    0.0000 C   0  0  0  0  0  0  0  0  0  0  0  0
    5.7998   12.0722    0.0000 C   0  0  0  0  0  0  0  0  0  0  0  0
    2.2678   12.0930    0.0000 C   0  0  0  0  0  0  0  0  0  0  0  0
    2.2678   11.0514    0.0000 C   0  0  0  0  0  0  0  0  0  0  0  0
    6.6659   10.5722    0.0000 C   0  0  0  0  0  0  0  0  0  0  0  0
    6.6659   12.5722    0.0000 C   0  0  0  0  0  0  0  0  0  0  0  0
    6.6659    9.5722    0.0000 C   0  0  0  0  0  0  0  0  0  0  0  0
    7.5319    9.0722    0.0000 C   0  0  0  0  0  0  0  0  0  0  0  0
    7.5319   14.0722    0.0000 C   0  0  0  0  0  0  0  0  0  0  0  0
    8.3979    9.5722    0.0000 C   0  0  0  0  0  0  0  0  0  0  0  0
    8.3979   14.5722    0.0000 C   0  0  0  0  0  0  0  0  0  0  0  0
    7.0319   14.9382    0.0000 C   0  0  0  0  0  0  0  0  0  0  0  0
    8.0319   13.2062    0.0000 C   0  0  0  0  0  0  0  0  0  0  0  0
    9.2640    9.0722    0.0000 C   0  0  0  0  0  0  0  0  0  0  0  0
    6.6659    7.5722    0.0000 C   0  0  0  0  0  0  0  0  0  0  0  0
    6.6659    6.5722    0.0000 C   0  0  0  0  0  0  0  0  0  0  0  0
   10.1300    9.5722    0.0000 C   0  0  0  0  0  0  0  0  0  0  0  0
    9.2640    8.0722    0.0000 C   0  0  0  0  0  0  0  0  0  0  0  0
    7.5319    6.0722    0.0000 C   0  0  0  0  0  0  0  0  0  0  0  0
   10.9960    9.0722    0.0000 C   0  0  0  0  0  0  0  0  0  0  0  0
   10.1300    7.5722    0.0000 C   0  0  0  0  0  0  0  0  0  0  0  0
   10.9960    8.0722    0.0000 C   0  0  0  0  0  0  0  0  0  0  0  0
    7.5319    5.0722    0.0000 C   0  0  0  0  0  0  0  0  0  0  0  0
    4.9338    6.5722    0.0000 C   0  0  0  0  0  0  0  0  0  0  0  0
    4.0678    6.0722    0.0000 C   0  0  0  0  0  0  0  0  0  0  0  0
    4.0678    5.0722    0.0000 C   0  0  0  0  0  0  0  0  0  0  0  0
    3.2018    4.5722    0.0000 C   0  0  0  0  0  0  0  0  0  0  0  0
    2.3358    6.0722    0.0000 C   0  0  0  0  0  0  0  0  0  0  0  0
    2.3358    5.0722    0.0000 C   0  0  0  0  0  0  0  0  0  0  0  0
    1.4418    6.6068    0.0000 C   0  0  0  0  0  0  0  0  0  0  0  0
    1.4418    4.5375    0.0000 C   0  0  0  0  0  0  0  0  0  0  0  0
    0.5357    6.0930    0.0000 C   0  0  0  0  0  0  0  0  0  0  0  0
    0.5357    5.0514    0.0000 C   0  0  0  0  0  0  0  0  0  0  0  0
    4.9004    0.5369    0.0000 C   0  0  0  0  0  0  0  0  0  0  0  0
  1  7  1  0
  1  8  2  0
  1  9  2  0
  1 54  1  0
  2 26  2  0
 27  3  1  6
  4 35  2  0
  5 43  2  0
  6 44  2  0
 10 19  1  0
 10 22  1  0
 10 25  1  0
 11 26  1  0
 11 29  1  0
 28 12  1  0
 12 35  1  0
 36 13  1  0
 13 44  1  0
 14 43  1  0
 15 45  2  0
 15 48  1  0
 16 17  1  0
 16 18  1  1
 16 20  1  0
 17 19  1  1
 17 21  1  0
 18 22  1  0
 20 23  1  0
 21 24  1  0
 22 26  1  1
 23 24  1  0
 25 27  1  0
 27 28  1  0
 28 30  1  6
 29 31  1  0
 29 32  1  0
 29 33  1  0
 30 34  1  0
 34 37  2  0
 34 38  1  0
 35 36  1  0
 36 39  1  6
 37 40  1  0
 38 41  2  0
 39 43  1  0
 40 42  2  0
 41 42  1  0
 44 45  1  0
 45 46  1  0
 46 47  2  0
 47 49  1  0
 48 49  2  0
 48 50  1  0
 49 51  1  0
 50 52  2  0
 51 53  2  0
 52 53  1  0
M  END
>  <PUBCHEM_COMPOUND_CID>  (1) 
60934

>  <PUBCHEM_COMPOUND_CANONICALIZED>  (1) 
1

>  <PUBCHEM_CACTVS_COMPLEXITY>  (1) 
1230

>  <PUBCHEM_CACTVS_HBOND_ACCEPTOR>  (1) 
10

>  <PUBCHEM_CACTVS_HBOND_DONOR>  (1) 
6

>  <PUBCHEM_CACTVS_ROTATABLE_BOND>  (1) 
13

>  <PUBCHEM_CACTVS_SUBSKEYS>  (1) 
AAADcfB/vABAAAAAAAAAAAAAAAAAAAAAAAA8eMECAAAAAACx9AAAHgQQCAAADbzhngaywPPIEoKoAyVyVHCCgCAnAiAImKG4ZNgKcPrA1bGUYQhklgDYyYedyKCOgAAAAAACAAAAAAAAACQAAAAAAAAAAA==

>  <PUBCHEM_IUPAC_OPENEYE_NAME>  (1) 
(2S)-N-[(1S,2R)-3-[(3S,4aS,8aS)-3-(tert-butylcarbamoyl)-3,4,4a,5,6,7,8,8a-octahydro-1H-isoquinolin-2-yl]-1-benzyl-2-hydroxy-propyl]-2-(quinoline-2-carbonylamino)butanediamide;methanesulfonic acid

>  <PUBCHEM_IUPAC_CAS_NAME>  (1) 
(2S)-N-[(2S,3R)-4-[(3S,4aS,8aS)-3-[(tert-butylamino)-oxomethyl]-3,4,4a,5,6,7,8,8a-octahydro-1H-isoquinolin-2-yl]-3-hydroxy-1-phenylbutan-2-yl]-2-[[oxo(2-quinolinyl)methyl]amino]butanediamide;methanesulfonic acid

>  <PUBCHEM_IUPAC_NAME_MARKUP>  (1) 
(2<I>S</I>)-<I>N</I>-[(2<I>S</I>,3<I>R</I>)-4-[(3<I>S</I>,4<I>a</I><I>S</I>,8<I>a</I><I>S</I>)-3-(<I>tert</I>-butylcarbamoyl)-3,4,4<I>a</I>,5,6,7,8,8<I>a</I>-octahydro-1<I>H</I>-isoquinolin-2-yl]-3-hydroxy-1-phenylbutan-2-yl]-2-(quinoline-2-carbonylamino)butanediamide;methanesulfonic acid

>  <PUBCHEM_IUPAC_NAME>  (1) 
(2S)-N-[(2S,3R)-4-[(3S,4aS,8aS)-3-(tert-butylcarbamoyl)-3,4,4a,5,6,7,8,8a-octahydro-1H-isoquinolin-2-yl]-3-hydroxy-1-phenylbutan-2-yl]-2-(quinoline-2-carbonylamino)butanediamide;methanesulfonic acid

>  <PUBCHEM_IUPAC_SYSTEMATIC_NAME>  (1) 
(2S)-N-[(2S,3R)-4-[(3S,4aS,8aS)-3-(tert-butylcarbamoyl)-3,4,4a,5,6,7,8,8a-octahydro-1H-isoquinolin-2-yl]-3-oxidanyl-1-phenyl-butan-2-yl]-2-(quinolin-2-ylcarbonylamino)butanediamide;methanesulfonic acid

>  <PUBCHEM_IUPAC_TRADITIONAL_NAME>  (1) 
(2S)-N-[(1S,2R)-3-[(3S,4aS,8aS)-3-(tert-butylcarbamoyl)-3,4,4a,5,6,7,8,8a-octahydro-1H-isoquinolin-2-yl]-1-benzyl-2-hydroxy-propyl]-2-(quinaldoylamino)succinamide;mesylic acid

>  <PUBCHEM_IUPAC_INCHI>  (1) 
InChI=1S/C38H50N6O5.CH4O3S/c1-38(2,3)43-37(49)32-20-26-14-7-8-15-27(26)22-44(32)23-33(45)30(19-24-11-5-4-6-12-24)41-36(48)31(21-34(39)46)42-35(47)29-18-17-25-13-9-10-16-28(25)40-29;1-5(2,3)4/h4-6,9-13,16-18,26-27,30-33,45H,7-8,14-15,19-23H2,1-3H3,(H2,39,46)(H,41,48)(H,42,47)(H,43,49);1H3,(H,2,3,4)/t26-,27+,30-,31-,32-,33+;/m0./s1

>  <PUBCHEM_IUPAC_INCHIKEY>  (1) 
IRHXGOXEBNJUSN-YOXDLBRISA-N

>  <PUBCHEM_EXACT_MASS>  (1) 
766.37238388

>  <PUBCHEM_MOLECULAR_FORMULA>  (1) 
C39H54N6O8S

>  <PUBCHEM_MOLECULAR_WEIGHT>  (1) 
766.9

>  <PUBCHEM_OPENEYE_CAN_SMILES>  (1) 
CC(C)(C)NC(=O)C1CC2CCCCC2CN1CC(C(CC3=CC=CC=C3)NC(=O)C(CC(=O)N)NC(=O)C4=NC5=CC=CC=C5C=C4)O.CS(=O)(=O)O

>  <PUBCHEM_OPENEYE_ISO_SMILES>  (1) 
CC(C)(C)NC(=O)[C@@H]1C[C@@H]2CCCC[C@@H]2CN1C[C@H]([C@H](CC3=CC=CC=C3)NC(=O)[C@H](CC(=O)N)NC(=O)C4=NC5=CC=CC=C5C=C4)O.CS(=O)(=O)O

>  <PUBCHEM_CACTVS_TPSA>  (1) 
230

>  <PUBCHEM_MONOISOTOPIC_WEIGHT>  (1) 
766.37238388

>  <PUBCHEM_TOTAL_CHARGE>  (1) 
0

>  <PUBCHEM_HEAVY_ATOM_COUNT>  (1) 
54

>  <PUBCHEM_ATOM_DEF_STEREO_COUNT>  (1) 
6

>  <PUBCHEM_ATOM_UDEF_STEREO_COUNT>  (1) 
0

>  <PUBCHEM_BOND_DEF_STEREO_COUNT>  (1) 
0

>  <PUBCHEM_BOND_UDEF_STEREO_COUNT>  (1) 
0

>  <PUBCHEM_ISOTOPIC_ATOM_COUNT>  (1) 
0

>  <PUBCHEM_COMPONENT_COUNT>  (1) 
2

>  <PUBCHEM_CACTVS_TAUTO_COUNT>  (1) 
24

>  <PUBCHEM_COORDINATE_TYPE>  (1) 
1
5
255

>  <PUBCHEM_BONDANNOTATIONS>  (1) 
28  12  6
36  13  6
15  45  8
15  48  8
16  55  6
17  56  6
22  26  5
27  3  6
34  37  8
34  38  8
37  40  8
38  41  8
40  42  8
41  42  8
45  46  8
46  47  8
47  49  8
48  49  8
48  50  8
49  51  8
50  52  8
51  53  8
52  53  8

$$$$
