SA6_0009
  -OEChem-07172407062D

183187  0     1  0  0  0  0  0999 V2000
   14.1183    6.8305    0.0000 O   0  0  0  0  0  0  0  0  0  0  0  0
   15.4732    6.9706    0.0000 O   0  0  0  0  0  0  0  0  0  0  0  0
   10.8721    5.2614    0.0000 O   0  0  0  0  0  0  0  0  0  0  0  0
   12.1148    9.0634    0.0000 O   0  0  0  0  0  0  0  0  0  0  0  0
    9.1793    8.4448    0.0000 O   0  0  0  0  0  0  0  0  0  0  0  0
   18.9717    6.0985    0.0000 O   0  0  0  0  0  0  0  0  0  0  0  0
   11.0898   11.5026    0.0000 O   0  0  0  0  0  0  0  0  0  0  0  0
    2.5008   15.8878    0.0000 O   0  0  0  0  0  0  0  0  0  0  0  0
    1.3853   20.0566    0.0000 O   0  0  0  0  0  0  0  0  0  0  0  0
    3.1687   15.1435    0.0000 O   0  0  0  0  0  0  0  0  0  0  0  0
    4.8616   11.9601    0.0000 O   0  0  0  0  0  0  0  0  0  0  0  0
    8.1077   13.5292    0.0000 O   0  0  0  0  0  0  0  0  0  0  0  0
    7.1758   10.6777    0.0000 O   0  0  0  0  0  0  0  0  0  0  0  0
   13.6681   13.8160    0.0000 O   0  0  0  0  0  0  0  0  0  0  0  0
   10.6634   23.5561    0.0000 O   0  0  0  0  0  0  0  0  0  0  0  0
    9.7974   22.0561    0.0000 O   0  0  0  0  0  0  0  0  0  0  0  0
   14.4755    5.1357    0.0000 N   0  0  0  0  0  0  0  0  0  0  0  0
   12.1613    6.4181    0.0000 N   0  0  0  0  0  0  0  0  0  0  0  0
   16.9717    6.1019    0.0000 N   0  0  0  0  0  0  0  0  0  0  0  0
   10.8256    7.9067    0.0000 N   0  0  0  0  0  0  0  0  0  0  0  0
   17.4732    6.9671    0.0000 N   0  0  0  0  0  0  0  0  0  0  0  0
   13.5435    2.2841    0.0000 N   0  0  0  0  0  0  0  0  0  0  0  0
    9.8006   10.3458    0.0000 N   0  0  0  0  0  0  0  0  0  0  0  0
   18.9747    7.8305    0.0000 N   0  0  0  0  0  0  0  0  0  0  0  0
    2.3533   18.5604    0.0000 N   0  0  0  0  0  0  0  0  0  0  0  0
    8.4649   11.8344    0.0000 N   0  0  0  0  0  0  0  0  0  0  0  0
    3.7900   17.0445    0.0000 N   0  0  0  0  0  0  0  0  0  0  0  0
    4.8150   14.6054    0.0000 N   0  0  0  0  0  0  0  0  0  0  0  0
   13.9007    0.5893    0.0000 N   0  0  0  0  0  0  0  0  0  0  0  0
   12.2544    1.1274    0.0000 N   0  0  0  0  0  0  0  0  0  0  0  0
    6.1507   13.1168    0.0000 N   0  0  0  0  0  0  0  0  0  0  0  0
    3.2152   10.8887    0.0000 N   0  0  0  0  0  0  0  0  0  0  0  0
    6.6986   17.7643    0.0000 N   0  0  0  0  0  0  0  0  0  0  0  0
    5.7498   19.0750    0.0000 N   0  0  0  0  0  0  0  0  0  0  0  0
   15.4702    5.2385    0.0000 C   0  0  1  0  0  0  0  0  0  0  0  0
   15.8754    4.3243    0.0000 C   0  0  0  0  0  0  0  0  0  0  0  0
   15.1311    3.6564    0.0000 C   0  0  0  0  0  0  0  0  0  0  0  0
   14.2659    4.1579    0.0000 C   0  0  0  0  0  0  0  0  0  0  0  0
   13.8077    5.8800    0.0000 C   0  0  0  0  0  0  0  0  0  0  0  0
   12.8292    5.6738    0.0000 C   0  0  2  0  0  0  0  0  0  0  0  0
   15.9717    6.1037    0.0000 C   0  0  0  0  0  0  0  0  0  0  0  0
   12.5185    4.7233    0.0000 C   0  0  0  0  0  0  0  0  0  0  0  0
   13.1863    3.9790    0.0000 C   0  0  0  0  0  0  0  0  0  0  0  0
   10.5150    6.9562    0.0000 C   0  0  2  0  0  0  0  0  0  0  0  0
   11.1828    6.2119    0.0000 C   0  0  0  0  0  0  0  0  0  0  0  0
    9.5365    6.7500    0.0000 C   0  0  0  0  0  0  0  0  0  0  0  0
    9.2258    5.7994    0.0000 C   0  0  0  0  0  0  0  0  0  0  0  0
   12.8757    3.0284    0.0000 C   0  0  0  0  0  0  0  0  0  0  0  0
    8.2473    5.5932    0.0000 C   0  0  0  0  0  0  0  0  0  0  0  0
    9.8936    5.0551    0.0000 C   0  0  0  0  0  0  0  0  0  0  0  0
   10.1578    8.6510    0.0000 C   0  0  0  0  0  0  0  0  0  0  0  0
   10.4684    9.6015    0.0000 C   0  0  1  0  0  0  0  0  0  0  0  0
   11.4470    9.8077    0.0000 C   0  0  0  0  0  0  0  0  0  0  0  0
   18.4732    6.9654    0.0000 C   0  0  0  0  0  0  0  0  0  0  0  0
   13.0933    9.2696    0.0000 C   0  0  0  0  0  0  0  0  0  0  0  0
    9.4434   12.0406    0.0000 C   0  0  2  0  0  0  0  0  0  0  0  0
   13.2329    1.3336    0.0000 C   0  0  0  0  0  0  0  0  0  0  0  0
   10.1113   11.2963    0.0000 C   0  0  0  0  0  0  0  0  0  0  0  0
    2.1437   17.5826    0.0000 C   0  0  1  0  0  0  0  0  0  0  0  0
    1.1490   17.4798    0.0000 C   0  0  0  0  0  0  0  0  0  0  0  0
    4.4579   16.3002    0.0000 C   0  0  1  0  0  0  0  0  0  0  0  0
    4.5044   13.6549    0.0000 C   0  0  1  0  0  0  0  0  0  0  0  0
    0.7438   18.3941    0.0000 C   0  0  0  0  0  0  0  0  0  0  0  0
    9.7541   12.9912    0.0000 C   0  0  0  0  0  0  0  0  0  0  0  0
    3.5259   13.4487    0.0000 C   0  0  0  0  0  0  0  0  0  0  0  0
    2.8115   16.8383    0.0000 C   0  0  0  0  0  0  0  0  0  0  0  0
   14.0718    9.4759    0.0000 C   0  0  0  0  0  0  0  0  0  0  0  0
   13.2995    8.2912    0.0000 C   0  0  0  0  0  0  0  0  0  0  0  0
   12.8871   10.2482    0.0000 C   0  0  0  0  0  0  0  0  0  0  0  0
    1.4881   19.0619    0.0000 C   0  0  0  0  0  0  0  0  0  0  0  0
    6.8186   12.3725    0.0000 C   0  0  2  0  0  0  0  0  0  0  0  0
    5.4364   16.5064    0.0000 C   0  0  0  0  0  0  0  0  0  0  0  0
    4.1472   15.3497    0.0000 C   0  0  0  0  0  0  0  0  0  0  0  0
    3.2152   12.4981    0.0000 C   0  0  0  0  0  0  0  0  0  0  0  0
    5.1722   12.9106    0.0000 C   0  0  0  0  0  0  0  0  0  0  0  0
    7.7971   12.5787    0.0000 C   0  0  0  0  0  0  0  0  0  0  0  0
   10.7326   13.1974    0.0000 C   0  0  0  0  0  0  0  0  0  0  0  0
    2.2690   12.1934    0.0000 C   0  0  0  0  0  0  0  0  0  0  0  0
    5.7470   17.4570    0.0000 C   0  0  0  0  0  0  0  0  0  0  0  0
    6.5079   11.4220    0.0000 C   0  0  0  0  0  0  0  0  0  0  0  0
    3.7988   11.6934    0.0000 C   0  0  0  0  0  0  0  0  0  0  0  0
    2.2690   11.1934    0.0000 C   0  0  0  0  0  0  0  0  0  0  0  0
   11.0433   14.1479    0.0000 C   0  0  0  0  0  0  0  0  0  0  0  0
   11.4004   12.4531    0.0000 C   0  0  0  0  0  0  0  0  0  0  0  0
    1.4030   12.6934    0.0000 C   0  0  0  0  0  0  0  0  0  0  0  0
    1.4030   10.6934    0.0000 C   0  0  0  0  0  0  0  0  0  0  0  0
    5.1606   18.2670    0.0000 C   0  0  0  0  0  0  0  0  0  0  0  0
    0.5369   12.1934    0.0000 C   0  0  0  0  0  0  0  0  0  0  0  0
    0.5369   11.1934    0.0000 C   0  0  0  0  0  0  0  0  0  0  0  0
   12.0218   14.3541    0.0000 C   0  0  0  0  0  0  0  0  0  0  0  0
   12.3789   12.6593    0.0000 C   0  0  0  0  0  0  0  0  0  0  0  0
    6.7003   18.7643    0.0000 C   0  0  0  0  0  0  0  0  0  0  0  0
   12.6896   13.6098    0.0000 C   0  0  0  0  0  0  0  0  0  0  0  0
    8.9313   23.5561    0.0000 C   0  0  0  0  0  0  0  0  0  0  0  0
    9.7974   23.0561    0.0000 C   0  0  0  0  0  0  0  0  0  0  0  0
   15.1334    5.7591    0.0000 H   0  0  0  0  0  0  0  0  0  0  0  0
   16.2389    3.8220    0.0000 H   0  0  0  0  0  0  0  0  0  0  0  0
   16.4128    4.6333    0.0000 H   0  0  0  0  0  0  0  0  0  0  0  0
   14.7658    3.1555    0.0000 H   0  0  0  0  0  0  0  0  0  0  0  0
   15.5911    3.2408    0.0000 H   0  0  0  0  0  0  0  0  0  0  0  0
   13.6766    4.3505    0.0000 H   0  0  0  0  0  0  0  0  0  0  0  0
   14.0127    3.5920    0.0000 H   0  0  0  0  0  0  0  0  0  0  0  0
   12.2225    5.5459    0.0000 H   0  0  0  0  0  0  0  0  0  0  0  0
   11.9716    5.0153    0.0000 H   0  0  0  0  0  0  0  0  0  0  0  0
   12.1359    4.2354    0.0000 H   0  0  0  0  0  0  0  0  0  0  0  0
   12.3539    7.0074    0.0000 H   0  0  0  0  0  0  0  0  0  0  0  0
   13.7333    3.6870    0.0000 H   0  0  0  0  0  0  0  0  0  0  0  0
   13.5689    4.4669    0.0000 H   0  0  0  0  0  0  0  0  0  0  0  0
   11.1216    7.0840    0.0000 H   0  0  0  0  0  0  0  0  0  0  0  0
   17.2808    5.5645    0.0000 H   0  0  0  0  0  0  0  0  0  0  0  0
    9.5159    7.3696    0.0000 H   0  0  0  0  0  0  0  0  0  0  0  0
    8.9226    6.8373    0.0000 H   0  0  0  0  0  0  0  0  0  0  0  0
    9.0332    5.2101    0.0000 H   0  0  0  0  0  0  0  0  0  0  0  0
   12.3288    3.3205    0.0000 H   0  0  0  0  0  0  0  0  0  0  0  0
   12.4931    2.5405    0.0000 H   0  0  0  0  0  0  0  0  0  0  0  0
   11.4323    8.0346    0.0000 H   0  0  0  0  0  0  0  0  0  0  0  0
   17.1641    7.5046    0.0000 H   0  0  0  0  0  0  0  0  0  0  0  0
    8.1194    6.1999    0.0000 H   0  0  0  0  0  0  0  0  0  0  0  0
    7.6406    5.4654    0.0000 H   0  0  0  0  0  0  0  0  0  0  0  0
    8.3752    4.9865    0.0000 H   0  0  0  0  0  0  0  0  0  0  0  0
    9.4322    4.6411    0.0000 H   0  0  0  0  0  0  0  0  0  0  0  0
   10.3077    4.5937    0.0000 H   0  0  0  0  0  0  0  0  0  0  0  0
   10.3551    5.4692    0.0000 H   0  0  0  0  0  0  0  0  0  0  0  0
    9.8618    9.4737    0.0000 H   0  0  0  0  0  0  0  0  0  0  0  0
   11.9733   10.1354    0.0000 H   0  0  0  0  0  0  0  0  0  0  0  0
   11.2157   10.3830    0.0000 H   0  0  0  0  0  0  0  0  0  0  0  0
    9.1939   10.2180    0.0000 H   0  0  0  0  0  0  0  0  0  0  0  0
    9.2508   11.4513    0.0000 H   0  0  0  0  0  0  0  0  0  0  0  0
    2.7428   17.7420    0.0000 H   0  0  0  0  0  0  0  0  0  0  0  0
    0.5590   17.2892    0.0000 H   0  0  0  0  0  0  0  0  0  0  0  0
    1.2768   16.8731    0.0000 H   0  0  0  0  0  0  0  0  0  0  0  0
    4.6505   16.8896    0.0000 H   0  0  0  0  0  0  0  0  0  0  0  0
    4.0903   14.1164    0.0000 H   0  0  0  0  0  0  0  0  0  0  0  0
    0.3802   18.8963    0.0000 H   0  0  0  0  0  0  0  0  0  0  0  0
    0.2063   18.0850    0.0000 H   0  0  0  0  0  0  0  0  0  0  0  0
    9.7335   13.6108    0.0000 H   0  0  0  0  0  0  0  0  0  0  0  0
    9.1403   13.0785    0.0000 H   0  0  0  0  0  0  0  0  0  0  0  0
   19.5947    7.8295    0.0000 H   0  0  0  0  0  0  0  0  0  0  0  0
   18.6656    8.3680    0.0000 H   0  0  0  0  0  0  0  0  0  0  0  0
    3.5053   14.0683    0.0000 H   0  0  0  0  0  0  0  0  0  0  0  0
    2.9120   13.5360    0.0000 H   0  0  0  0  0  0  0  0  0  0  0  0
    2.9201   18.8116    0.0000 H   0  0  0  0  0  0  0  0  0  0  0  0
    8.2723   11.2451    0.0000 H   0  0  0  0  0  0  0  0  0  0  0  0
    3.9826   17.6339    0.0000 H   0  0  0  0  0  0  0  0  0  0  0  0
   14.1997    8.8692    0.0000 H   0  0  0  0  0  0  0  0  0  0  0  0
   14.6785    9.6037    0.0000 H   0  0  0  0  0  0  0  0  0  0  0  0
   13.9440   10.0825    0.0000 H   0  0  0  0  0  0  0  0  0  0  0  0
   12.6928    8.1633    0.0000 H   0  0  0  0  0  0  0  0  0  0  0  0
   13.4274    7.6845    0.0000 H   0  0  0  0  0  0  0  0  0  0  0  0
   13.9062    8.4190    0.0000 H   0  0  0  0  0  0  0  0  0  0  0  0
   13.4938   10.3760    0.0000 H   0  0  0  0  0  0  0  0  0  0  0  0
   12.7592   10.8548    0.0000 H   0  0  0  0  0  0  0  0  0  0  0  0
   12.2804   10.1203    0.0000 H   0  0  0  0  0  0  0  0  0  0  0  0
    5.4569   15.8868    0.0000 H   0  0  0  0  0  0  0  0  0  0  0  0
    6.0502   16.4191    0.0000 H   0  0  0  0  0  0  0  0  0  0  0  0
    7.0112   12.9618    0.0000 H   0  0  0  0  0  0  0  0  0  0  0  0
    5.4217   14.7333    0.0000 H   0  0  0  0  0  0  0  0  0  0  0  0
    6.3433   13.7061    0.0000 H   0  0  0  0  0  0  0  0  0  0  0  0
   13.7081    0.0000    0.0000 H   0  0  0  0  0  0  0  0  0  0  0  0
   14.5074    0.7172    0.0000 H   0  0  0  0  0  0  0  0  0  0  0  0
   12.0617    0.5381    0.0000 H   0  0  0  0  0  0  0  0  0  0  0  0
   11.8403    1.5889    0.0000 H   0  0  0  0  0  0  0  0  0  0  0  0
    5.9610   11.7140    0.0000 H   0  0  0  0  0  0  0  0  0  0  0  0
    6.1254   10.9341    0.0000 H   0  0  0  0  0  0  0  0  0  0  0  0
    4.4188   11.6934    0.0000 H   0  0  0  0  0  0  0  0  0  0  0  0
    3.4078   10.2994    0.0000 H   0  0  0  0  0  0  0  0  0  0  0  0
   10.6292   14.6094    0.0000 H   0  0  0  0  0  0  0  0  0  0  0  0
   11.2078   11.8638    0.0000 H   0  0  0  0  0  0  0  0  0  0  0  0
    1.4030   13.3134    0.0000 H   0  0  0  0  0  0  0  0  0  0  0  0
    1.4030   10.0734    0.0000 H   0  0  0  0  0  0  0  0  0  0  0  0
    7.1996   17.3990    0.0000 H   0  0  0  0  0  0  0  0  0  0  0  0
    4.5406   18.2681    0.0000 H   0  0  0  0  0  0  0  0  0  0  0  0
    0.0000   12.5034    0.0000 H   0  0  0  0  0  0  0  0  0  0  0  0
    0.0000   10.8834    0.0000 H   0  0  0  0  0  0  0  0  0  0  0  0
   12.2144   14.9434    0.0000 H   0  0  0  0  0  0  0  0  0  0  0  0
   12.7930   12.1978    0.0000 H   0  0  0  0  0  0  0  0  0  0  0  0
    7.2026   19.1279    0.0000 H   0  0  0  0  0  0  0  0  0  0  0  0
    6.9831   10.0884    0.0000 H   0  0  0  0  0  0  0  0  0  0  0  0
   14.0822   13.3546    0.0000 H   0  0  0  0  0  0  0  0  0  0  0  0
    9.2413   24.0931    0.0000 H   0  0  0  0  0  0  0  0  0  0  0  0
    8.3944   23.8661    0.0000 H   0  0  0  0  0  0  0  0  0  0  0  0
    8.6213   23.0192    0.0000 H   0  0  0  0  0  0  0  0  0  0  0  0
   11.2003   23.2461    0.0000 H   0  0  0  0  0  0  0  0  0  0  0  0
  1 39  2  0  0  0  0
  2 41  2  0  0  0  0
  3 45  2  0  0  0  0
  4 53  1  0  0  0  0
  4 55  1  0  0  0  0
  5 51  2  0  0  0  0
  6 54  2  0  0  0  0
  7 58  2  0  0  0  0
  8 66  2  0  0  0  0
  9 70  2  0  0  0  0
 10 73  2  0  0  0  0
 11 75  2  0  0  0  0
 12 76  2  0  0  0  0
 13 80  1  0  0  0  0
 13178  1  0  0  0  0
 14 93  1  0  0  0  0
 14179  1  0  0  0  0
 15 95  1  0  0  0  0
 15183  1  0  0  0  0
 16 95  2  0  0  0  0
 17 35  1  0  0  0  0
 17 38  1  0  0  0  0
 17 39  1  0  0  0  0
 40 18  1  6  0  0  0
 18 45  1  0  0  0  0
 18106  1  0  0  0  0
 19 21  1  0  0  0  0
 19 41  1  0  0  0  0
 19110  1  0  0  0  0
 44 20  1  6  0  0  0
 20 51  1  0  0  0  0
 20116  1  0  0  0  0
 21 54  1  0  0  0  0
 21117  1  0  0  0  0
 22 48  1  0  0  0  0
 22 57  2  0  0  0  0
 52 23  1  6  0  0  0
 23 58  1  0  0  0  0
 23127  1  0  0  0  0
 24 54  1  0  0  0  0
 24138  1  0  0  0  0
 24139  1  0  0  0  0
 25 59  1  0  0  0  0
 25 70  1  0  0  0  0
 25142  1  0  0  0  0
 56 26  1  1  0  0  0
 26 76  1  0  0  0  0
 26143  1  0  0  0  0
 61 27  1  1  0  0  0
 27 66  1  0  0  0  0
 27144  1  0  0  0  0
 62 28  1  6  0  0  0
 28 73  1  0  0  0  0
 28157  1  0  0  0  0
 29 57  1  0  0  0  0
 29159  1  0  0  0  0
 29160  1  0  0  0  0
 30 57  1  0  0  0  0
 30161  1  0  0  0  0
 30162  1  0  0  0  0
 71 31  1  6  0  0  0
 31 75  1  0  0  0  0
 31158  1  0  0  0  0
 32 81  1  0  0  0  0
 32 82  1  0  0  0  0
 32166  1  0  0  0  0
 33 79  1  0  0  0  0
 33 92  1  0  0  0  0
 33171  1  0  0  0  0
 34 87  1  0  0  0  0
 34 92  2  0  0  0  0
 35 36  1  0  0  0  0
 35 41  1  6  0  0  0
 35 96  1  0  0  0  0
 36 37  1  0  0  0  0
 36 97  1  0  0  0  0
 36 98  1  0  0  0  0
 37 38  1  0  0  0  0
 37 99  1  0  0  0  0
 37100  1  0  0  0  0
 38101  1  0  0  0  0
 38102  1  0  0  0  0
 39 40  1  0  0  0  0
 40 42  1  0  0  0  0
 40103  1  0  0  0  0
 42 43  1  0  0  0  0
 42104  1  0  0  0  0
 42105  1  0  0  0  0
 43 48  1  0  0  0  0
 43107  1  0  0  0  0
 43108  1  0  0  0  0
 44 45  1  0  0  0  0
 44 46  1  0  0  0  0
 44109  1  0  0  0  0
 46 47  1  0  0  0  0
 46111  1  0  0  0  0
 46112  1  0  0  0  0
 47 49  1  0  0  0  0
 47 50  1  0  0  0  0
 47113  1  0  0  0  0
 48114  1  0  0  0  0
 48115  1  0  0  0  0
 49118  1  0  0  0  0
 49119  1  0  0  0  0
 49120  1  0  0  0  0
 50121  1  0  0  0  0
 50122  1  0  0  0  0
 50123  1  0  0  0  0
 51 52  1  0  0  0  0
 52 53  1  0  0  0  0
 52124  1  0  0  0  0
 53125  1  0  0  0  0
 53126  1  0  0  0  0
 55 67  1  0  0  0  0
 55 68  1  0  0  0  0
 55 69  1  0  0  0  0
 56 58  1  0  0  0  0
 56 64  1  0  0  0  0
 56128  1  0  0  0  0
 59 60  1  0  0  0  0
 59 66  1  6  0  0  0
 59129  1  0  0  0  0
 60 63  1  0  0  0  0
 60130  1  0  0  0  0
 60131  1  0  0  0  0
 61 72  1  0  0  0  0
 61 73  1  0  0  0  0
 61132  1  0  0  0  0
 62 65  1  0  0  0  0
 62 75  1  0  0  0  0
 62133  1  0  0  0  0
 63 70  1  0  0  0  0
 63134  1  0  0  0  0
 63135  1  0  0  0  0
 64 77  1  0  0  0  0
 64136  1  0  0  0  0
 64137  1  0  0  0  0
 65 74  1  0  0  0  0
 65140  1  0  0  0  0
 65141  1  0  0  0  0
 67145  1  0  0  0  0
 67146  1  0  0  0  0
 67147  1  0  0  0  0
 68148  1  0  0  0  0
 68149  1  0  0  0  0
 68150  1  0  0  0  0
 69151  1  0  0  0  0
 69152  1  0  0  0  0
 69153  1  0  0  0  0
 71 76  1  0  0  0  0
 71 80  1  0  0  0  0
 71156  1  0  0  0  0
 72 79  1  0  0  0  0
 72154  1  0  0  0  0
 72155  1  0  0  0  0
 74 78  1  0  0  0  0
 74 81  2  0  0  0  0
 77 83  2  0  0  0  0
 77 84  1  0  0  0  0
 78 82  1  0  0  0  0
 78 85  2  0  0  0  0
 79 87  2  0  0  0  0
 80163  1  0  0  0  0
 80164  1  0  0  0  0
 81165  1  0  0  0  0
 82 86  2  0  0  0  0
 83 90  1  0  0  0  0
 83167  1  0  0  0  0
 84 91  2  0  0  0  0
 84168  1  0  0  0  0
 85 88  1  0  0  0  0
 85169  1  0  0  0  0
 86 89  1  0  0  0  0
 86170  1  0  0  0  0
 87172  1  0  0  0  0
 88 89  2  0  0  0  0
 88173  1  0  0  0  0
 89174  1  0  0  0  0
 90 93  2  0  0  0  0
 90175  1  0  0  0  0
 91 93  1  0  0  0  0
 91176  1  0  0  0  0
 92177  1  0  0  0  0
 94 95  1  0  0  0  0
 94180  1  0  0  0  0
 94181  1  0  0  0  0
 94182  1  0  0  0  0
M  END
> <PUBCHEM_COMPOUND_CID>
16052011

> <PUBCHEM_COMPOUND_CANONICALIZED>
1

> <PUBCHEM_CACTVS_COMPLEXITY>
2590

> <PUBCHEM_CACTVS_HBOND_ACCEPTOR>
18

> <PUBCHEM_CACTVS_HBOND_DONOR>
18

> <PUBCHEM_CACTVS_ROTATABLE_BOND>
32

> <PUBCHEM_CACTVS_SUBSKEYS>
AAADcfB//gAAAAAAAAAAAAAAAAAAAWLFiwAwYAAAAAAAAFgB/AAAHgAYCAAADWzhngY/3vfrlgCoAzX3fACCgC2xMqIf+aG+fJiKfvbC2bOXcAh+9hPY2Cecy+COoAAAAAACAABAAAAAAAQAAAAAAAAAAA==

> <PUBCHEM_IUPAC_OPENEYE_NAME>
acetic acid;(2S)-N-[(1S)-2-[[(1S)-2-[[(1S)-2-[[(1S)-2-[[(1R)-1-(tert-butoxymethyl)-2-[[(1S)-1-[[(1S)-4-guanidino-1-[(2S)-2-(ureidocarbamoyl)pyrrolidine-1-carbonyl]butyl]carbamoyl]-3-methyl-butyl]amino]-2-oxo-ethyl]amino]-1-[(4-hydroxyphenyl)methyl]-2-oxo-ethyl]amino]-1-(hydroxymethyl)-2-oxo-ethyl]amino]-1-(1H-indol-3-ylmethyl)-2-oxo-ethyl]amino]-1-(1H-imidazol-5-ylmethyl)-2-oxo-ethyl]-5-oxo-pyrrolidine-2-carboxamide

> <PUBCHEM_IUPAC_CAS_NAME>
acetic acid;(2S)-N-[(2S)-1-[[(2S)-1-[[(2S)-1-[[(2S)-1-[[(2R)-1-[[(2S)-1-[[(2S)-1-[(2S)-2-[(carbamoylhydrazo)-oxomethyl]-1-pyrrolidinyl]-5-(diaminomethylideneamino)-1-oxopentan-2-yl]amino]-4-methyl-1-oxopentan-2-yl]amino]-3-[(2-methylpropan-2-yl)oxy]-1-oxopropan-2-yl]amino]-3-(4-hydroxyphenyl)-1-oxopropan-2-yl]amino]-3-hydroxy-1-oxopropan-2-yl]amino]-3-(1H-indol-3-yl)-1-oxopropan-2-yl]amino]-3-(1H-imidazol-5-yl)-1-oxopropan-2-yl]-5-oxo-2-pyrrolidinecarboxamide

> <PUBCHEM_IUPAC_NAME_MARKUP>
acetic acid;(2<I>S</I>)-<I>N</I>-[(2<I>S</I>)-1-[[(2<I>S</I>)-1-[[(2<I>S</I>)-1-[[(2<I>S</I>)-1-[[(2<I>R</I>)-1-[[(2<I>S</I>)-1-[[(2<I>S</I>)-1-[(2<I>S</I>)-2-[(carbamoylamino)carbamoyl]pyrrolidin-1-yl]-5-(diaminomethylideneamino)-1-oxopentan-2-yl]amino]-4-methyl-1-oxopentan-2-yl]amino]-3-[(2-methylpropan-2-yl)oxy]-1-oxopropan-2-yl]amino]-3-(4-hydroxyphenyl)-1-oxopropan-2-yl]amino]-3-hydroxy-1-oxopropan-2-yl]amino]-3-(1<I>H</I>-indol-3-yl)-1-oxopropan-2-yl]amino]-3-(1<I>H</I>-imidazol-5-yl)-1-oxopropan-2-yl]-5-oxopyrrolidine-2-carboxamide

> <PUBCHEM_IUPAC_NAME>
acetic acid;(2S)-N-[(2S)-1-[[(2S)-1-[[(2S)-1-[[(2S)-1-[[(2R)-1-[[(2S)-1-[[(2S)-1-[(2S)-2-[(carbamoylamino)carbamoyl]pyrrolidin-1-yl]-5-(diaminomethylideneamino)-1-oxopentan-2-yl]amino]-4-methyl-1-oxopentan-2-yl]amino]-3-[(2-methylpropan-2-yl)oxy]-1-oxopropan-2-yl]amino]-3-(4-hydroxyphenyl)-1-oxopropan-2-yl]amino]-3-hydroxy-1-oxopropan-2-yl]amino]-3-(1H-indol-3-yl)-1-oxopropan-2-yl]amino]-3-(1H-imidazol-5-yl)-1-oxopropan-2-yl]-5-oxopyrrolidine-2-carboxamide

> <PUBCHEM_IUPAC_SYSTEMATIC_NAME>
(2S)-N-[(2S)-1-[[(2S)-1-[[(2S)-1-[[(2S)-1-[[(2R)-1-[[(2S)-1-[[(2S)-1-[(2S)-2-[(aminocarbonylamino)carbamoyl]pyrrolidin-1-yl]-5-[bis(azanyl)methylideneamino]-1-oxidanylidene-pentan-2-yl]amino]-4-methyl-1-oxidanylidene-pentan-2-yl]amino]-3-[(2-methylpropan-2-yl)oxy]-1-oxidanylidene-propan-2-yl]amino]-3-(4-hydroxyphenyl)-1-oxidanylidene-propan-2-yl]amino]-3-oxidanyl-1-oxidanylidene-propan-2-yl]amino]-3-(1H-indol-3-yl)-1-oxidanylidene-propan-2-yl]amino]-3-(1H-imidazol-5-yl)-1-oxidanylidene-propan-2-yl]-5-oxidanylidene-pyrrolidine-2-carboxamide;ethanoic acid

> <PUBCHEM_IUPAC_TRADITIONAL_NAME>
acetic acid;(2S)-N-[(1S)-2-[[(1S)-2-[[(1S)-2-[[(1S)-2-[[(1R)-1-(tert-butoxymethyl)-2-[[(1S)-1-[[(1S)-4-guanidino-1-[(2S)-2-(ureidocarbamoyl)pyrrolidine-1-carbonyl]butyl]carbamoyl]-3-methyl-butyl]amino]-2-keto-ethyl]amino]-1-(4-hydroxybenzyl)-2-keto-ethyl]amino]-2-keto-1-methylol-ethyl]amino]-1-(1H-indol-3-ylmethyl)-2-keto-ethyl]amino]-1-(1H-imidazol-5-ylmethyl)-2-keto-ethyl]-5-keto-pyrrolidine-2-carboxamide

> <PUBCHEM_IUPAC_INCHI>
InChI=1S/C59H84N18O14.C2H4O2/c1-31(2)22-40(49(82)68-39(12-8-20-64-57(60)61)56(89)77-21-9-13-46(77)55(88)75-76-58(62)90)69-54(87)45(29-91-59(3,4)5)74-50(83)41(23-32-14-16-35(79)17-15-32)70-53(86)44(28-78)73-51(84)42(24-33-26-65-37-11-7-6-10-36(33)37)71-52(85)43(25-34-27-63-30-66-34)72-48(81)38-18-19-47(80)67-38;1-2(3)4/h6-7,10-11,14-17,26-27,30-31,38-46,65,78-79H,8-9,12-13,18-25,28-29H2,1-5H3,(H,63,66)(H,67,80)(H,68,82)(H,69,87)(H,70,86)(H,71,85)(H,72,81)(H,73,84)(H,74,83)(H,75,88)(H4,60,61,64)(H3,62,76,90);1H3,(H,3,4)/t38-,39-,40-,41-,42-,43-,44-,45+,46-;/m0./s1

> <PUBCHEM_IUPAC_INCHIKEY>
IKDXDQDKCZPQSZ-JHYYTBFNSA-N

> <PUBCHEM_EXACT_MASS>
1328.66256879

> <PUBCHEM_MOLECULAR_FORMULA>
C61H88N18O16

> <PUBCHEM_MOLECULAR_WEIGHT>
1329.5

> <PUBCHEM_OPENEYE_CAN_SMILES>
CC(C)CC(C(=O)NC(CCCN=C(N)N)C(=O)N1CCCC1C(=O)NNC(=O)N)NC(=O)C(COC(C)(C)C)NC(=O)C(CC2=CC=C(C=C2)O)NC(=O)C(CO)NC(=O)C(CC3=CNC4=CC=CC=C43)NC(=O)C(CC5=CN=CN5)NC(=O)C6CCC(=O)N6.CC(=O)O

> <PUBCHEM_OPENEYE_ISO_SMILES>
CC(C)C[C@@H](C(=O)N[C@@H](CCCN=C(N)N)C(=O)N1CCC[C@H]1C(=O)NNC(=O)N)NC(=O)[C@@H](COC(C)(C)C)NC(=O)[C@H](CC2=CC=C(C=C2)O)NC(=O)[C@H](CO)NC(=O)[C@H](CC3=CNC4=CC=CC=C43)NC(=O)[C@H](CC5=CN=CN5)NC(=O)[C@@H]6CCC(=O)N6.CC(=O)O

> <PUBCHEM_CACTVS_TPSA>
533

> <PUBCHEM_MONOISOTOPIC_WEIGHT>
1328.66256879

> <PUBCHEM_TOTAL_CHARGE>
0

> <PUBCHEM_HEAVY_ATOM_COUNT>
95

> <PUBCHEM_ATOM_DEF_STEREO_COUNT>
9

> <PUBCHEM_ATOM_UDEF_STEREO_COUNT>
0

> <PUBCHEM_BOND_DEF_STEREO_COUNT>
0

> <PUBCHEM_BOND_UDEF_STEREO_COUNT>
0

> <PUBCHEM_ISOTOPIC_ATOM_COUNT>
0

> <PUBCHEM_COMPONENT_COUNT>
2

> <PUBCHEM_CACTVS_TAUTO_COUNT>
-1

> <PUBCHEM_COORDINATE_TYPE>
1
5
255

> <PUBCHEM_BONDANNOTATIONS>
40  18  6
44  20  6
52  23  6
56  26  5
61  27  5
62  28  6
71  31  6
32  81  8
32  82  8
33  79  8
33  92  8
34  87  8
34  92  8
35  41  6
59  66  6
74  78  8
74  81  8
77  83  8
77  84  8
78  82  8
78  85  8
79  87  8
82  86  8
83  90  8
84  91  8
85  88  8
86  89  8
88  89  8
90  93  8
91  93  8

$$$$
