135401907
     RDKit          2D

 10 11  0  0  0  0  0  0  0  0999 V2000
    3.4030    1.6970    0.0000 O   0  0  0  0  0  0  0  0  0  0  0  0
    5.2152   -1.1077    0.0000 N   0  0  0  0  0  0  0  0  0  0  0  0
    2.5369    0.1970    0.0000 N   0  0  0  0  0  0  0  0  0  0  0  0
    3.4030   -1.3030    0.0000 N   0  0  0  0  0  0  0  0  0  0  0  0
    5.7988   -0.3030    0.0000 N   0  0  0  0  0  0  0  0  0  0  0  0
    4.2690    0.1970    0.0000 C   0  0  0  0  0  0  0  0  0  0  0  0
    4.2690   -0.8030    0.0000 C   0  0  0  0  0  0  0  0  0  0  0  0
    3.4030    0.6970    0.0000 C   0  0  0  0  0  0  0  0  0  0  0  0
    5.2152    0.5018    0.0000 C   0  0  0  0  0  0  0  0  0  0  0  0
    2.5369   -0.8030    0.0000 C   0  0  0  0  0  0  0  0  0  0  0  0
  1  8  2  0
  2  5  1  0
  2  7  1  0
  3  8  1  0
  3 10  1  0
  4  7  1  0
  4 10  2  0
  5  9  2  0
  6  7  2  0
  6  8  1  0
  6  9  1  0
M  END
>  <PUBCHEM_COMPOUND_CID>  (1) 
135401907

>  <PUBCHEM_COMPOUND_CANONICALIZED>  (1) 
1

>  <PUBCHEM_CACTVS_COMPLEXITY>  (1) 
190

>  <PUBCHEM_CACTVS_HBOND_ACCEPTOR>  (1) 
3

>  <PUBCHEM_CACTVS_HBOND_DONOR>  (1) 
2

>  <PUBCHEM_CACTVS_ROTATABLE_BOND>  (1) 
0

>  <PUBCHEM_CACTVS_SUBSKEYS>  (1) 
AAADcYBjoAAAAAAAAAAAAAAAAAAAAWAAAAAgAAAAAAAAAEABgAAAHgAYAAAADADBmgQtsJLjAACqAhN3dACQBAOEgAAVMaEoRFAAAIgASEAEhIgACgAAAMAAAAAAAAAAAAAAAAAAAAAAAAAAAAAAAAAAAA==

>  <PUBCHEM_IUPAC_OPENEYE_NAME>  (1) 
1,5-dihydropyrazolo[3,4-d]pyrimidin-4-one

>  <PUBCHEM_IUPAC_CAS_NAME>  (1) 
1,5-dihydropyrazolo[3,4-d]pyrimidin-4-one

>  <PUBCHEM_IUPAC_NAME_MARKUP>  (1) 
1,5-dihydropyrazolo[3,4-d]pyrimidin-4-one

>  <PUBCHEM_IUPAC_NAME>  (1) 
1,5-dihydropyrazolo[3,4-d]pyrimidin-4-one

>  <PUBCHEM_IUPAC_SYSTEMATIC_NAME>  (1) 
1,5-dihydropyrazolo[3,4-d]pyrimidin-4-one

>  <PUBCHEM_IUPAC_TRADITIONAL_NAME>  (1) 
1,5-dihydropyrazolo[3,4-d]pyrimidin-4-one

>  <PUBCHEM_IUPAC_INCHI>  (1) 
InChI=1S/C5H4N4O/c10-5-3-1-8-9-4(3)6-2-7-5/h1-2H,(H2,6,7,8,9,10)

>  <PUBCHEM_IUPAC_INCHIKEY>  (1) 
OFCNXPDARWKPPY-UHFFFAOYSA-N

>  <PUBCHEM_XLOGP3_AA>  (1) 
-0.7

>  <PUBCHEM_EXACT_MASS>  (1) 
136.03851076

>  <PUBCHEM_MOLECULAR_FORMULA>  (1) 
C5H4N4O

>  <PUBCHEM_MOLECULAR_WEIGHT>  (1) 
136.11

>  <PUBCHEM_OPENEYE_CAN_SMILES>  (1) 
C1=NNC2=C1C(=O)NC=N2

>  <PUBCHEM_OPENEYE_ISO_SMILES>  (1) 
C1=NNC2=C1C(=O)NC=N2

>  <PUBCHEM_CACTVS_TPSA>  (1) 
70.1

>  <PUBCHEM_MONOISOTOPIC_WEIGHT>  (1) 
136.03851076

>  <PUBCHEM_TOTAL_CHARGE>  (1) 
0

>  <PUBCHEM_HEAVY_ATOM_COUNT>  (1) 
10

>  <PUBCHEM_ATOM_DEF_STEREO_COUNT>  (1) 
0

>  <PUBCHEM_ATOM_UDEF_STEREO_COUNT>  (1) 
0

>  <PUBCHEM_BOND_DEF_STEREO_COUNT>  (1) 
0

>  <PUBCHEM_BOND_UDEF_STEREO_COUNT>  (1) 
0

>  <PUBCHEM_ISOTOPIC_ATOM_COUNT>  (1) 
0

>  <PUBCHEM_COMPONENT_COUNT>  (1) 
1

>  <PUBCHEM_CACTVS_TAUTO_COUNT>  (1) 
13

>  <PUBCHEM_COORDINATE_TYPE>  (1) 
1
5
255

>  <PUBCHEM_BONDANNOTATIONS>  (1) 
2  5  8
2  7  8
3  10  8
3  8  8
4  10  8
4  7  8
5  9  8
6  7  8
6  8  8
6  9  8

$$$$
