16052038
     RDKit          2D

 45 45  0  0  1  0  0  0  0  0999 V2000
    1.4837    3.3100    0.0000 Cl  0  0  0  0  0  0  0  0  0  0  0  0
   10.0366   12.3820    0.0000 Cl  0  0  0  0  0  0  0  0  0  0  0  0
    6.6799    3.3100    0.0000 S   0  0  0  0  0  0  0  0  0  0  0  0
    4.9478    3.3100    0.0000 O   0  0  0  0  0  0  0  0  0  0  0  0
    3.2158    1.3100    0.0000 O   0  0  0  0  0  0  0  0  0  0  0  0
    6.6799    1.3100    0.0000 O   0  0  0  0  0  0  0  0  0  0  0  0
    4.9478    0.3100    0.0000 O   0  0  0  0  0  0  0  0  0  0  0  0
    1.4837    4.3100    0.0000 O   0  0  0  0  0  0  0  0  0  0  0  0
    7.5459    2.8100    0.0000 O   0  0  0  0  0  0  0  0  0  0  0  0
    1.5407    6.3978    0.0000 N   0  0  0  0  0  0  0  0  0  0  0  0
    3.2158    4.3100    0.0000 N   0  0  0  0  0  0  0  0  0  0  0  0
    2.8497    7.3488    0.0000 C   0  0  0  0  0  0  0  0  0  0  0  0
    2.3497    5.8100    0.0000 C   0  0  0  0  0  0  0  0  0  0  0  0
    3.1588    6.3978    0.0000 C   0  0  0  0  0  0  0  0  0  0  0  0
    1.8497    7.3488    0.0000 C   0  0  0  0  0  0  0  0  0  0  0  0
    3.4375    8.1579    0.0000 C   0  0  0  0  0  0  0  0  0  0  0  0
    4.0818    2.8100    0.0000 C   0  0  0  0  0  0  0  0  0  0  0  0
    3.2158    3.3100    0.0000 C   0  0  0  0  0  0  0  0  0  0  0  0
    4.0818    1.8100    0.0000 C   0  0  0  0  0  0  0  0  0  0  0  0
    2.3497    4.8100    0.0000 C   0  0  0  0  0  0  0  0  0  0  0  0
    4.9478    1.3100    0.0000 C   0  0  0  0  0  0  0  0  0  0  0  0
    5.8138    1.8100    0.0000 C   0  0  0  0  0  0  0  0  0  0  0  0
    0.5897    6.0888    0.0000 C   0  0  0  0  0  0  0  0  0  0  0  0
    5.8138    2.8100    0.0000 C   0  0  0  0  0  0  0  0  0  0  0  0
    3.0308    9.0714    0.0000 C   0  0  0  0  0  0  0  0  0  0  0  0
    2.3497    2.8100    0.0000 C   0  0  0  0  0  0  0  0  0  0  0  0
    3.6186    9.8804    0.0000 C   0  0  0  0  0  0  0  0  0  0  0  0
    2.3497    1.8100    0.0000 C   0  0  0  0  0  0  0  0  0  0  0  0
    7.5459    1.8100    0.0000 C   0  0  0  0  0  0  0  0  0  0  0  0
    6.6799    4.3100    0.0000 C   0  0  0  0  0  0  0  0  0  0  0  0
    8.4119    1.3100    0.0000 C   0  0  0  0  0  0  0  0  0  0  0  0
    9.2779    1.8100    0.0000 C   0  0  0  0  0  0  0  0  0  0  0  0
   10.1440    1.3100    0.0000 C   0  0  0  0  0  0  0  0  0  0  0  0
   11.0100    1.8100    0.0000 C   0  0  0  0  0  0  0  0  0  0  0  0
   11.8760    1.3100    0.0000 C   0  0  0  0  0  0  0  0  0  0  0  0
   12.7420    1.8100    0.0000 C   0  0  0  0  0  0  0  0  0  0  0  0
   13.6081    1.3100    0.0000 C   0  0  0  0  0  0  0  0  0  0  0  0
   14.4741    1.8100    0.0000 C   0  0  0  0  0  0  0  0  0  0  0  0
   15.3401    1.3100    0.0000 C   0  0  0  0  0  0  0  0  0  0  0  0
   16.2061    1.8100    0.0000 C   0  0  0  0  0  0  0  0  0  0  0  0
   17.0722    1.3100    0.0000 C   0  0  0  0  0  0  0  0  0  0  0  0
   17.9382    1.8100    0.0000 C   0  0  0  0  0  0  0  0  0  0  0  0
   18.8042    1.3100    0.0000 C   0  0  0  0  0  0  0  0  0  0  0  0
   19.6702    1.8100    0.0000 C   0  0  0  0  0  0  0  0  0  0  0  0
   20.5363    1.3100    0.0000 C   0  0  0  0  0  0  0  0  0  0  0  0
 26  1  1  0
 24  3  1  6
  3 30  1  0
 17  4  1  1
  4 24  1  0
 19  5  1  1
 22  6  1  6
  6 29  1  0
 21  7  1  1
  8 20  2  0
  9 29  2  0
 10 13  1  0
 10 15  1  0
 10 23  1  0
 18 11  1  1
 11 20  1  0
 12 14  1  0
 12 15  1  0
 12 16  1  6
 13 14  1  0
 13 20  1  1
 16 25  1  0
 17 18  1  0
 17 19  1  0
 18 26  1  0
 19 21  1  0
 21 22  1  0
 22 24  1  0
 25 27  1  0
 26 28  1  6
 29 31  1  0
 31 32  1  0
 32 33  1  0
 33 34  1  0
 34 35  1  0
 35 36  1  0
 36 37  1  0
 37 38  1  0
 38 39  1  0
 39 40  1  0
 40 41  1  0
 41 42  1  0
 42 43  1  0
 43 44  1  0
 44 45  1  0
M  END
>  <PUBCHEM_COMPOUND_CID>  (1) 
16052038

>  <PUBCHEM_COMPOUND_CANONICALIZED>  (1) 
1

>  <PUBCHEM_CACTVS_COMPLEXITY>  (1) 
810

>  <PUBCHEM_CACTVS_HBOND_ACCEPTOR>  (1) 
8

>  <PUBCHEM_CACTVS_HBOND_DONOR>  (1) 
4

>  <PUBCHEM_CACTVS_ROTATABLE_BOND>  (1) 
23

>  <PUBCHEM_CACTVS_SUBSKEYS>  (1) 
AAADcfB/OABGAAAAAAAAAAAAAAAAAWAAAAAkAAAAAAAAAAAAAAAAHgYQCAAADT/lwEaCCAPABggIAAGQGAAAAAAAABAAAIGIAgADUBIhgCBXQAAHFgCTAAH42aOOAAAAAAAAAAAAAAAAAAAAAAAAAAAAAA==

>  <PUBCHEM_IUPAC_OPENEYE_NAME>  (1) 
[(2R,3R,4S,5R,6R)-6-[(1S,2S)-2-chloro-1-[[(2S,4R)-1-methyl-4-propyl-pyrrolidine-2-carbonyl]amino]propyl]-4,5-dihydroxy-2-methylsulfanyl-tetrahydropyran-3-yl] hexadecanoate;hydrochloride

>  <PUBCHEM_IUPAC_CAS_NAME>  (1) 
hexadecanoic acid [(2R,3R,4S,5R,6R)-6-[(1S,2S)-2-chloro-1-[[[(2S,4R)-1-methyl-4-propyl-2-pyrrolidinyl]-oxomethyl]amino]propyl]-4,5-dihydroxy-2-(methylthio)-3-oxanyl] ester;hydrochloride

>  <PUBCHEM_IUPAC_NAME_MARKUP>  (1) 
[(2<I>R</I>,3<I>R</I>,4<I>S</I>,5<I>R</I>,6<I>R</I>)-6-[(1<I>S</I>,2<I>S</I>)-2-chloro-1-[[(2<I>S</I>,4<I>R</I>)-1-methyl-4-propylpyrrolidine-2-carbonyl]amino]propyl]-4,5-dihydroxy-2-methylsulfanyloxan-3-yl] hexadecanoate;hydrochloride

>  <PUBCHEM_IUPAC_NAME>  (1) 
[(2R,3R,4S,5R,6R)-6-[(1S,2S)-2-chloro-1-[[(2S,4R)-1-methyl-4-propylpyrrolidine-2-carbonyl]amino]propyl]-4,5-dihydroxy-2-methylsulfanyloxan-3-yl] hexadecanoate;hydrochloride

>  <PUBCHEM_IUPAC_SYSTEMATIC_NAME>  (1) 
[(2R,3R,4S,5R,6R)-6-[(1S,2S)-2-chloranyl-1-[[(2S,4R)-1-methyl-4-propyl-pyrrolidin-2-yl]carbonylamino]propyl]-2-methylsulfanyl-4,5-bis(oxidanyl)oxan-3-yl] hexadecanoate;hydrochloride

>  <PUBCHEM_IUPAC_TRADITIONAL_NAME>  (1) 
palmitic acid [(2R,3R,4S,5R,6R)-6-[(1S,2S)-2-chloro-1-[[(2S,4R)-1-methyl-4-propyl-prolyl]amino]propyl]-4,5-dihydroxy-2-(methylthio)tetrahydropyran-3-yl] ester;hydrochloride

>  <PUBCHEM_IUPAC_INCHI>  (1) 
InChI=1S/C34H63ClN2O6S.ClH/c1-6-8-9-10-11-12-13-14-15-16-17-18-19-21-27(38)42-32-30(40)29(39)31(43-34(32)44-5)28(24(3)35)36-33(41)26-22-25(20-7-2)23-37(26)4;/h24-26,28-32,34,39-40H,6-23H2,1-5H3,(H,36,41);1H/t24-,25+,26-,28+,29+,30-,31+,32+,34+;/m0./s1

>  <PUBCHEM_IUPAC_INCHIKEY>  (1) 
GTNDZRUWKHDICY-DJHAJVGHSA-N

>  <PUBCHEM_EXACT_MASS>  (1) 
698.3862143

>  <PUBCHEM_MOLECULAR_FORMULA>  (1) 
C34H64Cl2N2O6S

>  <PUBCHEM_MOLECULAR_WEIGHT>  (1) 
699.9

>  <PUBCHEM_OPENEYE_CAN_SMILES>  (1) 
CCCCCCCCCCCCCCCC(=O)OC1C(C(C(OC1SC)C(C(C)Cl)NC(=O)C2CC(CN2C)CCC)O)O.Cl

>  <PUBCHEM_OPENEYE_ISO_SMILES>  (1) 
CCCCCCCCCCCCCCCC(=O)O[C@@H]1[C@H]([C@H]([C@H](O[C@@H]1SC)[C@@H]([C@H](C)Cl)NC(=O)[C@@H]2C[C@H](CN2C)CCC)O)O.Cl

>  <PUBCHEM_CACTVS_TPSA>  (1) 
134

>  <PUBCHEM_MONOISOTOPIC_WEIGHT>  (1) 
698.3862143

>  <PUBCHEM_TOTAL_CHARGE>  (1) 
0

>  <PUBCHEM_HEAVY_ATOM_COUNT>  (1) 
45

>  <PUBCHEM_ATOM_DEF_STEREO_COUNT>  (1) 
9

>  <PUBCHEM_ATOM_UDEF_STEREO_COUNT>  (1) 
0

>  <PUBCHEM_BOND_DEF_STEREO_COUNT>  (1) 
0

>  <PUBCHEM_BOND_UDEF_STEREO_COUNT>  (1) 
0

>  <PUBCHEM_ISOTOPIC_ATOM_COUNT>  (1) 
0

>  <PUBCHEM_COMPONENT_COUNT>  (1) 
2

>  <PUBCHEM_CACTVS_TAUTO_COUNT>  (1) 
-1

>  <PUBCHEM_COORDINATE_TYPE>  (1) 
1
5
255

>  <PUBCHEM_BONDANNOTATIONS>  (1) 
26  1  6
18  11  5
12  16  6
13  20  5
17  54  6
24  3  6
19  5  5
22  6  6
21  7  5

$$$$
