3447
     RDKit          2D

 23 23  0  0  0  0  0  0  0  0999 V2000
    6.8671    0.5600    0.0000 O   0  0  0  0  0  0  0  0  0  0  0  0
    5.1350    0.5600    0.0000 O   0  0  0  0  0  0  0  0  0  0  0  0
    7.7331    5.0600    0.0000 O   0  0  0  0  0  0  0  0  0  0  0  0
    6.0010    5.0600    0.0000 O   0  0  0  0  0  0  0  0  0  0  0  0
    3.4030   -4.4400    0.0000 N   0  0  0  0  0  0  0  0  0  0  0  0
    2.5369   -5.9400    0.0000 N   0  0  0  0  0  0  0  0  0  0  0  0
    4.2690   -5.9400    0.0000 N   0  0  0  0  0  0  0  0  0  0  0  0
    5.1350   -2.4400    0.0000 C   0  0  0  0  0  0  0  0  0  0  0  0
    5.1350   -1.4400    0.0000 C   0  0  0  0  0  0  0  0  0  0  0  0
    4.2690   -2.9400    0.0000 C   0  0  0  0  0  0  0  0  0  0  0  0
    6.0010   -0.9400    0.0000 C   0  0  0  0  0  0  0  0  0  0  0  0
    4.2690   -3.9400    0.0000 C   0  0  0  0  0  0  0  0  0  0  0  0
    6.0010    0.0600    0.0000 C   0  0  0  0  0  0  0  0  0  0  0  0
    6.8671    1.5600    0.0000 C   0  0  0  0  0  0  0  0  0  0  0  0
    6.0010    2.0600    0.0000 C   0  0  0  0  0  0  0  0  0  0  0  0
    7.7331    2.0600    0.0000 C   0  0  0  0  0  0  0  0  0  0  0  0
    6.8671    3.5600    0.0000 C   0  0  0  0  0  0  0  0  0  0  0  0
    3.4030   -5.4400    0.0000 C   0  0  0  0  0  0  0  0  0  0  0  0
    6.0010    3.0600    0.0000 C   0  0  0  0  0  0  0  0  0  0  0  0
    7.7331    3.0600    0.0000 C   0  0  0  0  0  0  0  0  0  0  0  0
    6.8671    4.5600    0.0000 C   0  0  0  0  0  0  0  0  0  0  0  0
    7.7331    6.0600    0.0000 C   0  0  0  0  0  0  0  0  0  0  0  0
    8.5991    6.5600    0.0000 C   0  0  0  0  0  0  0  0  0  0  0  0
  1 13  1  0
  1 14  1  0
  2 13  2  0
  3 21  1  0
  3 22  1  0
  4 21  2  0
  5 12  1  0
  5 18  2  0
  6 18  1  0
  7 18  1  0
  8  9  1  0
  8 10  1  0
  9 11  1  0
 10 12  1  0
 11 13  1  0
 14 15  2  0
 14 16  1  0
 15 19  1  0
 16 20  2  0
 17 19  2  0
 17 20  1  0
 17 21  1  0
 22 23  1  0
M  END
>  <PUBCHEM_COMPOUND_CID>  (1) 
3447

>  <PUBCHEM_COMPOUND_CANONICALIZED>  (1) 
1

>  <PUBCHEM_CACTVS_COMPLEXITY>  (1) 
400

>  <PUBCHEM_CACTVS_HBOND_ACCEPTOR>  (1) 
5

>  <PUBCHEM_CACTVS_HBOND_DONOR>  (1) 
2

>  <PUBCHEM_CACTVS_ROTATABLE_BOND>  (1) 
11

>  <PUBCHEM_CACTVS_SUBSKEYS>  (1) 
AAADceB7OAAAAAAAAAAAAAAAAAAAAAAAAAAwAAAAAAAAAAABAAAAHgAQAAAADAThmAYzDoJABACoAiDSLAACCAEkIAAIiAEGCMgMJjKEtRqCOyCkwBEIqYeY7CzOIAAAAAAAAABAAAAAAAAAAAAAAAAAAA==

>  <PUBCHEM_IUPAC_OPENEYE_NAME>  (1) 
ethyl 4-(6-guanidinohexanoyloxy)benzoate

>  <PUBCHEM_IUPAC_CAS_NAME>  (1) 
4-[6-(diaminomethylideneamino)-1-oxohexoxy]benzoic acid ethyl ester

>  <PUBCHEM_IUPAC_NAME_MARKUP>  (1) 
ethyl 4-[6-(diaminomethylideneamino)hexanoyloxy]benzoate

>  <PUBCHEM_IUPAC_NAME>  (1) 
ethyl 4-[6-(diaminomethylideneamino)hexanoyloxy]benzoate

>  <PUBCHEM_IUPAC_SYSTEMATIC_NAME>  (1) 
ethyl 4-[6-[bis(azanyl)methylideneamino]hexanoyloxy]benzoate

>  <PUBCHEM_IUPAC_TRADITIONAL_NAME>  (1) 
4-(6-guanidinohexanoyloxy)benzoic acid ethyl ester

>  <PUBCHEM_IUPAC_INCHI>  (1) 
InChI=1S/C16H23N3O4/c1-2-22-15(21)12-7-9-13(10-8-12)23-14(20)6-4-3-5-11-19-16(17)18/h7-10H,2-6,11H2,1H3,(H4,17,18,19)

>  <PUBCHEM_IUPAC_INCHIKEY>  (1) 
YKGYIDJEEQRWQH-UHFFFAOYSA-N

>  <PUBCHEM_XLOGP3_AA>  (1) 
1.4

>  <PUBCHEM_EXACT_MASS>  (1) 
321.16885622

>  <PUBCHEM_MOLECULAR_FORMULA>  (1) 
C16H23N3O4

>  <PUBCHEM_MOLECULAR_WEIGHT>  (1) 
321.37

>  <PUBCHEM_OPENEYE_CAN_SMILES>  (1) 
CCOC(=O)C1=CC=C(C=C1)OC(=O)CCCCCN=C(N)N

>  <PUBCHEM_OPENEYE_ISO_SMILES>  (1) 
CCOC(=O)C1=CC=C(C=C1)OC(=O)CCCCCN=C(N)N

>  <PUBCHEM_CACTVS_TPSA>  (1) 
117

>  <PUBCHEM_MONOISOTOPIC_WEIGHT>  (1) 
321.16885622

>  <PUBCHEM_TOTAL_CHARGE>  (1) 
0

>  <PUBCHEM_HEAVY_ATOM_COUNT>  (1) 
23

>  <PUBCHEM_ATOM_DEF_STEREO_COUNT>  (1) 
0

>  <PUBCHEM_ATOM_UDEF_STEREO_COUNT>  (1) 
0

>  <PUBCHEM_BOND_DEF_STEREO_COUNT>  (1) 
0

>  <PUBCHEM_BOND_UDEF_STEREO_COUNT>  (1) 
0

>  <PUBCHEM_ISOTOPIC_ATOM_COUNT>  (1) 
0

>  <PUBCHEM_COMPONENT_COUNT>  (1) 
1

>  <PUBCHEM_CACTVS_TAUTO_COUNT>  (1) 
-1

>  <PUBCHEM_COORDINATE_TYPE>  (1) 
1
5
255

>  <PUBCHEM_BONDANNOTATIONS>  (1) 
14  15  8
14  16  8
15  19  8
16  20  8
17  19  8
17  20  8

$$$$
