11321
     RDKit          2D

 14 15  0  0  0  0  0  0  0  0999 V2000
    4.9889    2.1274    0.0000 O   0  0  0  0  0  0  0  0  0  0  0  0
    6.2619    0.3722    0.0000 O   0  0  0  0  0  0  0  0  0  0  0  0
    4.3211   -2.1274    0.0000 O   0  0  0  0  0  0  0  0  0  0  0  0
    4.6783   -0.4326    0.0000 N   0  0  0  0  0  0  0  0  0  0  0  0
    3.7320   -0.1278    0.0000 C   0  0  0  0  0  0  0  0  0  0  0  0
    3.7320    0.8722    0.0000 C   0  0  0  0  0  0  0  0  0  0  0  0
    4.6783    1.1769    0.0000 C   0  0  0  0  0  0  0  0  0  0  0  0
    5.2619    0.3722    0.0000 C   0  0  0  0  0  0  0  0  0  0  0  0
    2.8660   -0.6278    0.0000 C   0  0  0  0  0  0  0  0  0  0  0  0
    2.8660    1.3722    0.0000 C   0  0  0  0  0  0  0  0  0  0  0  0
    4.9889   -1.3831    0.0000 C   0  0  0  0  0  0  0  0  0  0  0  0
    2.0000   -0.1278    0.0000 C   0  0  0  0  0  0  0  0  0  0  0  0
    2.0000    0.8722    0.0000 C   0  0  0  0  0  0  0  0  0  0  0  0
    5.9674   -1.5893    0.0000 C   0  0  0  0  0  0  0  0  0  0  0  0
  1  7  2  0
  2  8  2  0
  3 11  2  0
  4  5  1  0
  4  8  1  0
  4 11  1  0
  5  6  2  0
  5  9  1  0
  6  7  1  0
  6 10  1  0
  7  8  1  0
  9 12  2  0
 10 13  2  0
 11 14  1  0
 12 13  1  0
M  END
>  <PUBCHEM_COMPOUND_CID>  (1) 
11321

>  <PUBCHEM_COMPOUND_CANONICALIZED>  (1) 
1

>  <PUBCHEM_CACTVS_COMPLEXITY>  (1) 
311

>  <PUBCHEM_CACTVS_HBOND_ACCEPTOR>  (1) 
3

>  <PUBCHEM_CACTVS_HBOND_DONOR>  (1) 
0

>  <PUBCHEM_CACTVS_ROTATABLE_BOND>  (1) 
0

>  <PUBCHEM_CACTVS_SUBSKEYS>  (1) 
AAADcYByMAAAAAAAAAAAAAAAAAAAAWAAAAAwAAAAAAAAAFgBAAAAHgAAAAAADAyBmAAywIMAAACIAqVSUACCAAAlAgAIiAGAZMgIIDrAlbGEIYhghCDIyccciICOAAAAAAACAAAAAAAAAAQAAAAAAAAAAA==

>  <PUBCHEM_IUPAC_OPENEYE_NAME>  (1) 
1-acetylindoline-2,3-dione

>  <PUBCHEM_IUPAC_CAS_NAME>  (1) 
1-acetylindole-2,3-dione

>  <PUBCHEM_IUPAC_NAME_MARKUP>  (1) 
1-acetylindole-2,3-dione

>  <PUBCHEM_IUPAC_NAME>  (1) 
1-acetylindole-2,3-dione

>  <PUBCHEM_IUPAC_SYSTEMATIC_NAME>  (1) 
1-ethanoylindole-2,3-dione

>  <PUBCHEM_IUPAC_TRADITIONAL_NAME>  (1) 
1-acetylisatin

>  <PUBCHEM_IUPAC_INCHI>  (1) 
InChI=1S/C10H7NO3/c1-6(12)11-8-5-3-2-4-7(8)9(13)10(11)14/h2-5H,1H3

>  <PUBCHEM_IUPAC_INCHIKEY>  (1) 
LPGDEHBASRKTDG-UHFFFAOYSA-N

>  <PUBCHEM_XLOGP3>  (1) 
0.4

>  <PUBCHEM_EXACT_MASS>  (1) 
189.042593085

>  <PUBCHEM_MOLECULAR_FORMULA>  (1) 
C10H7NO3

>  <PUBCHEM_MOLECULAR_WEIGHT>  (1) 
189.17

>  <PUBCHEM_OPENEYE_CAN_SMILES>  (1) 
CC(=O)N1C2=CC=CC=C2C(=O)C1=O

>  <PUBCHEM_OPENEYE_ISO_SMILES>  (1) 
CC(=O)N1C2=CC=CC=C2C(=O)C1=O

>  <PUBCHEM_CACTVS_TPSA>  (1) 
54.4

>  <PUBCHEM_MONOISOTOPIC_WEIGHT>  (1) 
189.042593085

>  <PUBCHEM_TOTAL_CHARGE>  (1) 
0

>  <PUBCHEM_HEAVY_ATOM_COUNT>  (1) 
14

>  <PUBCHEM_ATOM_DEF_STEREO_COUNT>  (1) 
0

>  <PUBCHEM_ATOM_UDEF_STEREO_COUNT>  (1) 
0

>  <PUBCHEM_BOND_DEF_STEREO_COUNT>  (1) 
0

>  <PUBCHEM_BOND_UDEF_STEREO_COUNT>  (1) 
0

>  <PUBCHEM_ISOTOPIC_ATOM_COUNT>  (1) 
0

>  <PUBCHEM_COMPONENT_COUNT>  (1) 
1

>  <PUBCHEM_CACTVS_TAUTO_COUNT>  (1) 
-1

>  <PUBCHEM_COORDINATE_TYPE>  (1) 
1
5
255

>  <PUBCHEM_BONDANNOTATIONS>  (1) 
10  13  8
12  13  8
5  6  8
5  9  8
6  10  8
9  12  8

$$$$
