16451095
     RDKit          2D

 24 26  0  0  1  0  0  0  0  0999 V2000
    6.7619   -3.5168    0.0000 O   0  0  0  0  0  0  0  0  0  0  0  0
    4.6318    0.7993    0.0000 O   0  0  0  0  0  0  0  0  0  0  0  0
    5.2531    2.7003    0.0000 O   0  0  0  0  0  0  0  0  0  0  0  0
    4.6783   -1.8461    0.0000 N   0  0  0  0  0  0  0  0  0  0  0  0
    4.6783   -3.4556    0.0000 N   0  0  0  0  0  0  0  0  0  0  0  0
    5.2619   -2.6508    0.0000 C   0  0  0  0  0  0  0  0  0  0  0  0
    6.2619   -2.6508    0.0000 C   0  0  0  0  0  0  0  0  0  0  0  0
    3.7320   -2.1508    0.0000 C   0  0  0  0  0  0  0  0  0  0  0  0
    4.9889   -0.8956    0.0000 C   0  0  0  0  0  0  0  0  0  0  0  0
    3.7320   -3.1508    0.0000 C   0  0  0  0  0  0  0  0  0  0  0  0
    6.7619   -1.7848    0.0000 C   0  0  0  0  0  0  0  0  0  0  0  0
    4.3211   -0.1513    0.0000 C   0  0  0  0  0  0  0  0  0  0  0  0
    2.8660   -1.6508    0.0000 C   0  0  0  0  0  0  0  0  0  0  0  0
    2.8660   -3.6508    0.0000 C   0  0  0  0  0  0  0  0  0  0  0  0
    7.7619   -1.7848    0.0000 C   0  0  0  0  0  0  0  0  0  0  0  0
    2.0000   -2.1508    0.0000 C   0  0  0  0  0  0  0  0  0  0  0  0
    2.0000   -3.1508    0.0000 C   0  0  0  0  0  0  0  0  0  0  0  0
    3.9639    1.5436    0.0000 C   0  0  0  0  0  0  0  0  0  0  0  0
    4.2746    2.4941    0.0000 C   0  0  0  0  0  0  0  0  0  0  0  0
    2.9854    1.3373    0.0000 C   0  0  0  0  0  0  0  0  0  0  0  0
    3.6067    3.2384    0.0000 C   0  0  0  0  0  0  0  0  0  0  0  0
    2.3176    2.0816    0.0000 C   0  0  0  0  0  0  0  0  0  0  0  0
    2.6282    3.0322    0.0000 C   0  0  0  0  0  0  0  0  0  0  0  0
    5.5637    3.6508    0.0000 C   0  0  0  0  0  0  0  0  0  0  0  0
  1  7  1  0
  2 12  1  0
  2 18  1  0
  3 19  1  0
  3 24  1  0
  4  6  1  0
  4  8  1  0
  4  9  1  0
  5  6  2  0
  5 10  1  0
  6  7  1  0
  7 11  1  0
  8 10  2  0
  8 13  1  0
  9 12  1  0
 10 14  1  0
 11 15  1  0
 13 16  2  0
 14 17  2  0
 16 17  1  0
 18 19  2  0
 18 20  1  0
 19 21  1  0
 20 22  2  0
 21 23  2  0
 22 23  1  0
M  END
>  <PUBCHEM_COMPOUND_CID>  (1) 
16451095

>  <PUBCHEM_COMPOUND_CANONICALIZED>  (1) 
1

>  <PUBCHEM_CACTVS_COMPLEXITY>  (1) 
382

>  <PUBCHEM_CACTVS_HBOND_ACCEPTOR>  (1) 
4

>  <PUBCHEM_CACTVS_HBOND_DONOR>  (1) 
1

>  <PUBCHEM_CACTVS_ROTATABLE_BOND>  (1) 
7

>  <PUBCHEM_CACTVS_SUBSKEYS>  (1) 
AAADceB7MAAAAAAAAAAAAAAAAAAAAWAAAAAwYAAAAAAAAFgB9AAAHgAACAAACBzhlwYz1rcMFgCgASZiZASCiC0hMqAJ2CA+/JiPfqLEuZuXeCrswBPa6CeQQAAAAAAAAAAAQCAAAAAAAACAQAAAAAAAAA==

>  <PUBCHEM_IUPAC_OPENEYE_NAME>  (1) 
1-[1-[2-(2-methoxyphenoxy)ethyl]benzimidazol-2-yl]propan-1-ol

>  <PUBCHEM_IUPAC_CAS_NAME>  (1) 
1-[1-[2-(2-methoxyphenoxy)ethyl]-2-benzimidazolyl]-1-propanol

>  <PUBCHEM_IUPAC_NAME_MARKUP>  (1) 
1-[1-[2-(2-methoxyphenoxy)ethyl]benzimidazol-2-yl]propan-1-ol

>  <PUBCHEM_IUPAC_NAME>  (1) 
1-[1-[2-(2-methoxyphenoxy)ethyl]benzimidazol-2-yl]propan-1-ol

>  <PUBCHEM_IUPAC_SYSTEMATIC_NAME>  (1) 
1-[1-[2-(2-methoxyphenoxy)ethyl]benzimidazol-2-yl]propan-1-ol

>  <PUBCHEM_IUPAC_TRADITIONAL_NAME>  (1) 
1-[1-[2-(2-methoxyphenoxy)ethyl]benzimidazol-2-yl]propan-1-ol

>  <PUBCHEM_IUPAC_INCHI>  (1) 
InChI=1S/C19H22N2O3/c1-3-16(22)19-20-14-8-4-5-9-15(14)21(19)12-13-24-18-11-7-6-10-17(18)23-2/h4-11,16,22H,3,12-13H2,1-2H3

>  <PUBCHEM_IUPAC_INCHIKEY>  (1) 
LYLCQBOCKYTTFQ-UHFFFAOYSA-N

>  <PUBCHEM_XLOGP3_AA>  (1) 
3.1

>  <PUBCHEM_EXACT_MASS>  (1) 
326.16304257

>  <PUBCHEM_MOLECULAR_FORMULA>  (1) 
C19H22N2O3

>  <PUBCHEM_MOLECULAR_WEIGHT>  (1) 
326.4

>  <PUBCHEM_OPENEYE_CAN_SMILES>  (1) 
CCC(C1=NC2=CC=CC=C2N1CCOC3=CC=CC=C3OC)O

>  <PUBCHEM_OPENEYE_ISO_SMILES>  (1) 
CCC(C1=NC2=CC=CC=C2N1CCOC3=CC=CC=C3OC)O

>  <PUBCHEM_CACTVS_TPSA>  (1) 
56.5

>  <PUBCHEM_MONOISOTOPIC_WEIGHT>  (1) 
326.16304257

>  <PUBCHEM_TOTAL_CHARGE>  (1) 
0

>  <PUBCHEM_HEAVY_ATOM_COUNT>  (1) 
24

>  <PUBCHEM_ATOM_DEF_STEREO_COUNT>  (1) 
0

>  <PUBCHEM_ATOM_UDEF_STEREO_COUNT>  (1) 
1

>  <PUBCHEM_BOND_DEF_STEREO_COUNT>  (1) 
0

>  <PUBCHEM_BOND_UDEF_STEREO_COUNT>  (1) 
0

>  <PUBCHEM_ISOTOPIC_ATOM_COUNT>  (1) 
0

>  <PUBCHEM_COMPONENT_COUNT>  (1) 
1

>  <PUBCHEM_CACTVS_TAUTO_COUNT>  (1) 
-1

>  <PUBCHEM_COORDINATE_TYPE>  (1) 
1
5
255

>  <PUBCHEM_BONDANNOTATIONS>  (1) 
7  1  3
10  14  8
13  16  8
14  17  8
16  17  8
18  19  8
18  20  8
19  21  8
20  22  8
21  23  8
22  23  8
4  6  8
4  8  8
5  10  8
5  6  8
8  10  8
8  13  8

$$$$
