2764
     RDKit          2D

 24 27  0  0  0  0  0  0  0  0999 V2000
    4.2639    1.4572    0.0000 F   0  0  0  0  0  0  0  0  0  0  0  0
    7.7940    2.4330    0.0000 O   0  0  0  0  0  0  0  0  0  0  0  0
   10.3921    0.9330    0.0000 O   0  0  0  0  0  0  0  0  0  0  0  0
    9.5261    2.4330    0.0000 O   0  0  0  0  0  0  0  0  0  0  0  0
    7.7940   -0.5670    0.0000 N   0  0  0  0  0  0  0  0  0  0  0  0
    4.2639   -0.5911    0.0000 N   0  0  0  0  0  0  0  0  0  0  0  0
    2.5357   -1.5978    0.0000 N   0  0  0  0  0  0  0  0  0  0  0  0
    7.7940   -1.5670    0.0000 C   0  0  0  0  0  0  0  0  0  0  0  0
    7.2940   -2.4330    0.0000 C   0  0  0  0  0  0  0  0  0  0  0  0
    8.2940   -2.4330    0.0000 C   0  0  0  0  0  0  0  0  0  0  0  0
    6.9280   -0.0670    0.0000 C   0  0  0  0  0  0  0  0  0  0  0  0
    8.6601   -0.0670    0.0000 C   0  0  0  0  0  0  0  0  0  0  0  0
    6.9280    0.9330    0.0000 C   0  0  0  0  0  0  0  0  0  0  0  0
    6.0341   -0.6016    0.0000 C   0  0  0  0  0  0  0  0  0  0  0  0
    5.1280   -0.0878    0.0000 C   0  0  0  0  0  0  0  0  0  0  0  0
    3.3960   -0.0945    0.0000 C   0  0  0  0  0  0  0  0  0  0  0  0
    4.2678   -1.5911    0.0000 C   0  0  0  0  0  0  0  0  0  0  0  0
    8.6601    0.9330    0.0000 C   0  0  0  0  0  0  0  0  0  0  0  0
    7.7940    1.4330    0.0000 C   0  0  0  0  0  0  0  0  0  0  0  0
    2.5319   -0.5978    0.0000 C   0  0  0  0  0  0  0  0  0  0  0  0
    3.4037   -2.0945    0.0000 C   0  0  0  0  0  0  0  0  0  0  0  0
    6.0341    1.4677    0.0000 C   0  0  0  0  0  0  0  0  0  0  0  0
    5.1280    0.9538    0.0000 C   0  0  0  0  0  0  0  0  0  0  0  0
    9.5261    1.4330    0.0000 C   0  0  0  0  0  0  0  0  0  0  0  0
  1 23  1  0
  2 19  2  0
  3 24  1  0
  4 24  2  0
  5  8  1  0
  5 11  1  0
  5 12  1  0
  6 15  1  0
  6 16  1  0
  6 17  1  0
  7 20  1  0
  7 21  1  0
  8  9  1  0
  8 10  1  0
  9 10  1  0
 11 13  2  0
 11 14  1  0
 12 18  2  0
 13 19  1  0
 13 22  1  0
 14 15  2  0
 15 23  1  0
 16 20  1  0
 17 21  1  0
 18 19  1  0
 18 24  1  0
 22 23  2  0
M  END
>  <PUBCHEM_COMPOUND_CID>  (1) 
2764

>  <PUBCHEM_COMPOUND_CANONICALIZED>  (1) 
1

>  <PUBCHEM_CACTVS_COMPLEXITY>  (1) 
571

>  <PUBCHEM_CACTVS_HBOND_ACCEPTOR>  (1) 
7

>  <PUBCHEM_CACTVS_HBOND_DONOR>  (1) 
2

>  <PUBCHEM_CACTVS_ROTATABLE_BOND>  (1) 
3

>  <PUBCHEM_CACTVS_SUBSKEYS>  (1) 
AAADceB7MQAAAAAAAAAAAAAAGAAAAAAAAAA8QIAAAAAAAACBAAAAHwAQCAAADCzBmAwwyIPAAgCIAqTWSACCAAAlAgAAiIEIZMgIZD7I1NGUYYhksADI2ceY2aOeCAAAAAQCAAAQAAAACAQAAAAAAAAAAA==

>  <PUBCHEM_IUPAC_OPENEYE_NAME>  (1) 
1-cyclopropyl-6-fluoro-4-oxo-7-piperazin-1-yl-quinoline-3-carboxylic acid

>  <PUBCHEM_IUPAC_CAS_NAME>  (1) 
1-cyclopropyl-6-fluoro-4-oxo-7-(1-piperazinyl)-3-quinolinecarboxylic acid

>  <PUBCHEM_IUPAC_NAME_MARKUP>  (1) 
1-cyclopropyl-6-fluoro-4-oxo-7-piperazin-1-ylquinoline-3-carboxylic acid

>  <PUBCHEM_IUPAC_NAME>  (1) 
1-cyclopropyl-6-fluoro-4-oxo-7-piperazin-1-ylquinoline-3-carboxylic acid

>  <PUBCHEM_IUPAC_SYSTEMATIC_NAME>  (1) 
1-cyclopropyl-6-fluoranyl-4-oxidanylidene-7-piperazin-1-yl-quinoline-3-carboxylic acid

>  <PUBCHEM_IUPAC_TRADITIONAL_NAME>  (1) 
1-cyclopropyl-6-fluoro-4-keto-7-piperazino-quinoline-3-carboxylic acid

>  <PUBCHEM_IUPAC_INCHI>  (1) 
InChI=1S/C17H18FN3O3/c18-13-7-11-14(8-15(13)20-5-3-19-4-6-20)21(10-1-2-10)9-12(16(11)22)17(23)24/h7-10,19H,1-6H2,(H,23,24)

>  <PUBCHEM_IUPAC_INCHIKEY>  (1) 
MYSWGUAQZAJSOK-UHFFFAOYSA-N

>  <PUBCHEM_XLOGP3>  (1) 
-1.1

>  <PUBCHEM_EXACT_MASS>  (1) 
331.13321961

>  <PUBCHEM_MOLECULAR_FORMULA>  (1) 
C17H18FN3O3

>  <PUBCHEM_MOLECULAR_WEIGHT>  (1) 
331.34

>  <PUBCHEM_OPENEYE_CAN_SMILES>  (1) 
C1CC1N2C=C(C(=O)C3=CC(=C(C=C32)N4CCNCC4)F)C(=O)O

>  <PUBCHEM_OPENEYE_ISO_SMILES>  (1) 
C1CC1N2C=C(C(=O)C3=CC(=C(C=C32)N4CCNCC4)F)C(=O)O

>  <PUBCHEM_CACTVS_TPSA>  (1) 
72.9

>  <PUBCHEM_MONOISOTOPIC_WEIGHT>  (1) 
331.13321961

>  <PUBCHEM_TOTAL_CHARGE>  (1) 
0

>  <PUBCHEM_HEAVY_ATOM_COUNT>  (1) 
24

>  <PUBCHEM_ATOM_DEF_STEREO_COUNT>  (1) 
0

>  <PUBCHEM_ATOM_UDEF_STEREO_COUNT>  (1) 
0

>  <PUBCHEM_BOND_DEF_STEREO_COUNT>  (1) 
0

>  <PUBCHEM_BOND_UDEF_STEREO_COUNT>  (1) 
0

>  <PUBCHEM_ISOTOPIC_ATOM_COUNT>  (1) 
0

>  <PUBCHEM_COMPONENT_COUNT>  (1) 
1

>  <PUBCHEM_CACTVS_TAUTO_COUNT>  (1) 
-1

>  <PUBCHEM_COORDINATE_TYPE>  (1) 
1
5
255

>  <PUBCHEM_BONDANNOTATIONS>  (1) 
11  13  8
11  14  8
12  18  8
13  19  8
13  22  8
14  15  8
15  23  8
18  19  8
22  23  8
5  11  8
5  12  8

$$$$
