160570
     RDKit          2D

 26 27  0  0  1  0  0  0  0  0999 V2000
    2.8660    1.5000    0.0000 O   0  0  0  0  0  0  0  0  0  0  0  0
    6.4489    0.8264    0.0000 O   0  0  0  0  0  0  0  0  0  0  0  0
    2.8660   -1.5000    0.0000 O   0  0  0  0  0  0  0  0  0  0  0  0
    2.0000    0.0000    0.0000 O   0  0  0  0  0  0  0  0  0  0  0  0
    5.4641    3.0000    0.0000 C   0  0  0  0  0  0  0  0  0  0  0  0
    4.5981    2.5000    0.0000 C   0  0  0  0  0  0  0  0  0  0  0  0
    5.4641    4.0000    0.0000 C   0  0  0  0  0  0  0  0  0  0  0  0
    4.5981    4.5000    0.0000 C   0  0  0  0  0  0  0  0  0  0  0  0
    3.7320    3.0000    0.0000 C   0  0  0  0  0  0  0  0  0  0  0  0
    4.5981    1.5000    0.0000 C   0  0  0  0  0  0  0  0  0  0  0  0
    3.7320    4.0000    0.0000 C   0  0  0  0  0  0  0  0  0  0  0  0
    6.4489    3.1736    0.0000 C   0  0  0  0  0  0  0  0  0  0  0  0
    3.7320    1.0000    0.0000 C   0  0  0  0  0  0  0  0  0  0  0  0
    5.4641    1.0000    0.0000 C   0  0  0  0  0  0  0  0  0  0  0  0
    2.8660    4.5000    0.0000 C   0  0  0  0  0  0  0  0  0  0  0  0
    4.5981   -0.5000    0.0000 C   0  0  0  0  0  0  0  0  0  0  0  0
    3.7320    0.0000    0.0000 C   0  0  0  0  0  0  0  0  0  0  0  0
    6.7909    4.1133    0.0000 C   0  0  0  0  0  0  0  0  0  0  0  0
    5.4641   -0.0000    0.0000 C   0  0  0  0  0  0  0  0  0  0  0  0
    4.5981   -1.5000    0.0000 C   0  0  0  0  0  0  0  0  0  0  0  0
    7.0917    2.4076    0.0000 C   0  0  0  0  0  0  0  0  0  0  0  0
    5.4641   -2.0000    0.0000 C   0  0  0  0  0  0  0  0  0  0  0  0
    5.4641   -3.0000    0.0000 C   0  0  0  0  0  0  0  0  0  0  0  0
    2.8660   -0.5000    0.0000 C   0  0  0  0  0  0  0  0  0  0  0  0
    6.3301   -3.5000    0.0000 C   0  0  0  0  0  0  0  0  0  0  0  0
    6.3301   -4.5000    0.0000 C   0  0  0  0  0  0  0  0  0  0  0  0
  1 13  1  0
  2 14  1  0
  3 24  1  0
  4 24  2  0
  5  6  1  0
  5  7  1  0
  5 12  1  1
  6  9  1  0
  6 10  1  6
  7  8  1  0
  8 11  1  0
  9 11  2  0
 10 13  2  0
 10 14  1  0
 11 15  1  0
 12 18  1  0
 12 21  2  0
 13 17  1  0
 14 19  2  0
 16 17  2  0
 16 19  1  0
 16 20  1  0
 17 24  1  0
 20 22  1  0
 22 23  1  0
 23 25  1  0
 25 26  1  0
M  END
>  <PUBCHEM_COMPOUND_CID>  (1) 
160570

>  <PUBCHEM_COMPOUND_CANONICALIZED>  (1) 
1

>  <PUBCHEM_CACTVS_COMPLEXITY>  (1) 
538

>  <PUBCHEM_CACTVS_HBOND_ACCEPTOR>  (1) 
4

>  <PUBCHEM_CACTVS_HBOND_DONOR>  (1) 
3

>  <PUBCHEM_CACTVS_ROTATABLE_BOND>  (1) 
7

>  <PUBCHEM_CACTVS_SUBSKEYS>  (1) 
AAADceB4OAAAAAAAAAAAAAAAAAAAAAAAAAAwQAAAAAAAAAABAAAAGgAACAAADQSAmAAyDoAAAgCIAiDSCAACAAAkIAAAiAEGCMgIJzaCFRKAcUAl4BUImQeI7PTO4AADCAAYAADAAAYQADAAAAAAAAAAAA==

>  <PUBCHEM_IUPAC_OPENEYE_NAME>  (1) 
2,4-dihydroxy-3-[(1R,6R)-6-isopropenyl-3-methyl-cyclohex-2-en-1-yl]-6-pentyl-benzoic acid

>  <PUBCHEM_IUPAC_CAS_NAME>  (1) 
2,4-dihydroxy-3-[(1R,6R)-3-methyl-6-(1-methylethenyl)-1-cyclohex-2-enyl]-6-pentylbenzoic acid

>  <PUBCHEM_IUPAC_NAME_MARKUP>  (1) 
2,4-dihydroxy-3-[(1<I>R</I>,6<I>R</I>)-3-methyl-6-prop-1-en-2-ylcyclohex-2-en-1-yl]-6-pentylbenzoic acid

>  <PUBCHEM_IUPAC_NAME>  (1) 
2,4-dihydroxy-3-[(1R,6R)-3-methyl-6-prop-1-en-2-ylcyclohex-2-en-1-yl]-6-pentylbenzoic acid

>  <PUBCHEM_IUPAC_SYSTEMATIC_NAME>  (1) 
3-[(1R,6R)-3-methyl-6-prop-1-en-2-yl-cyclohex-2-en-1-yl]-2,4-bis(oxidanyl)-6-pentyl-benzoic acid

>  <PUBCHEM_IUPAC_TRADITIONAL_NAME>  (1) 
6-amyl-2,4-dihydroxy-3-[(1R,6R)-6-isopropenyl-3-methyl-cyclohex-2-en-1-yl]benzoic acid

>  <PUBCHEM_IUPAC_INCHI>  (1) 
InChI=1S/C22H30O4/c1-5-6-7-8-15-12-18(23)20(21(24)19(15)22(25)26)17-11-14(4)9-10-16(17)13(2)3/h11-12,16-17,23-24H,2,5-10H2,1,3-4H3,(H,25,26)/t16-,17+/m0/s1

>  <PUBCHEM_IUPAC_INCHIKEY>  (1) 
WVOLTBSCXRRQFR-DLBZAZTESA-N

>  <PUBCHEM_XLOGP3_AA>  (1) 
6.6

>  <PUBCHEM_EXACT_MASS>  (1) 
358.21440943

>  <PUBCHEM_MOLECULAR_FORMULA>  (1) 
C22H30O4

>  <PUBCHEM_MOLECULAR_WEIGHT>  (1) 
358.5

>  <PUBCHEM_OPENEYE_CAN_SMILES>  (1) 
CCCCCC1=CC(=C(C(=C1C(=O)O)O)C2C=C(CCC2C(=C)C)C)O

>  <PUBCHEM_OPENEYE_ISO_SMILES>  (1) 
CCCCCC1=CC(=C(C(=C1C(=O)O)O)[C@@H]2C=C(CC[C@H]2C(=C)C)C)O

>  <PUBCHEM_CACTVS_TPSA>  (1) 
77.8

>  <PUBCHEM_MONOISOTOPIC_WEIGHT>  (1) 
358.21440943

>  <PUBCHEM_TOTAL_CHARGE>  (1) 
0

>  <PUBCHEM_HEAVY_ATOM_COUNT>  (1) 
26

>  <PUBCHEM_ATOM_DEF_STEREO_COUNT>  (1) 
2

>  <PUBCHEM_ATOM_UDEF_STEREO_COUNT>  (1) 
0

>  <PUBCHEM_BOND_DEF_STEREO_COUNT>  (1) 
0

>  <PUBCHEM_BOND_UDEF_STEREO_COUNT>  (1) 
0

>  <PUBCHEM_ISOTOPIC_ATOM_COUNT>  (1) 
0

>  <PUBCHEM_COMPONENT_COUNT>  (1) 
1

>  <PUBCHEM_CACTVS_TAUTO_COUNT>  (1) 
-1

>  <PUBCHEM_COORDINATE_TYPE>  (1) 
1
5
255

>  <PUBCHEM_BONDANNOTATIONS>  (1) 
10  13  8
10  14  8
13  17  8
14  19  8
16  17  8
16  19  8
5  12  5
6  28  5

$$$$
