11671467
     RDKit          2D

 40 43  0  0  0  0  0  0  0  0999 V2000
   14.1961   -2.3212    0.0000 P   0  0  0  0  0  0  0  0  0  0  0  0
    9.7922    2.1546    0.0000 F   0  0  0  0  0  0  0  0  0  0  0  0
   13.3301    2.1788    0.0000 O   0  0  0  0  0  0  0  0  0  0  0  0
   15.0621    0.1788    0.0000 O   0  0  0  0  0  0  0  0  0  0  0  0
   14.1961   -1.3212    0.0000 O   0  0  0  0  0  0  0  0  0  0  0  0
   14.1961   -3.3212    0.0000 O   0  0  0  0  0  0  0  0  0  0  0  0
   15.1961   -2.3212    0.0000 O   0  0  0  0  0  0  0  0  0  0  0  0
   13.1961   -2.3212    0.0000 O   0  0  0  0  0  0  0  0  0  0  0  0
    2.8718    0.1279    0.0000 O   0  0  0  0  0  0  0  0  0  0  0  0
    4.5923    3.1346    0.0000 O   0  0  0  0  0  0  0  0  0  0  0  0
    2.8641    2.1279    0.0000 O   0  0  0  0  0  0  0  0  0  0  0  0
   13.3301    0.1788    0.0000 N   0  0  0  0  0  0  0  0  0  0  0  0
   11.5701    0.1441    0.0000 N   0  0  0  0  0  0  0  0  0  0  0  0
    9.8000    0.1546    0.0000 N   0  0  0  0  0  0  0  0  0  0  0  0
    8.0679    0.1479    0.0000 N   0  0  0  0  0  0  0  0  0  0  0  0
    6.3359    0.1413    0.0000 N   0  0  0  0  0  0  0  0  0  0  0  0
    7.1961    1.6446    0.0000 N   0  0  0  0  0  0  0  0  0  0  0  0
   14.1961    1.6788    0.0000 C   0  0  0  0  0  0  0  0  0  0  0  0
   14.1961    0.6788    0.0000 C   0  0  0  0  0  0  0  0  0  0  0  0
   12.4641    0.6788    0.0000 C   0  0  0  0  0  0  0  0  0  0  0  0
   15.1961    1.6788    0.0000 C   0  0  0  0  0  0  0  0  0  0  0  0
   14.6961    2.5448    0.0000 C   0  0  0  0  0  0  0  0  0  0  0  0
   12.4641    1.6788    0.0000 C   0  0  0  0  0  0  0  0  0  0  0  0
   13.3301   -0.8212    0.0000 C   0  0  0  0  0  0  0  0  0  0  0  0
   11.5701    2.2134    0.0000 C   0  0  0  0  0  0  0  0  0  0  0  0
   10.6640    0.6580    0.0000 C   0  0  0  0  0  0  0  0  0  0  0  0
   10.6640    1.6996    0.0000 C   0  0  0  0  0  0  0  0  0  0  0  0
    8.9320    0.6513    0.0000 C   0  0  0  0  0  0  0  0  0  0  0  0
    8.9282    1.6513    0.0000 C   0  0  0  0  0  0  0  0  0  0  0  0
    7.2000    0.6446    0.0000 C   0  0  0  0  0  0  0  0  0  0  0  0
    5.4679    0.6379    0.0000 C   0  0  0  0  0  0  0  0  0  0  0  0
    5.4641    1.6379    0.0000 C   0  0  0  0  0  0  0  0  0  0  0  0
    4.6038    0.1346    0.0000 C   0  0  0  0  0  0  0  0  0  0  0  0
    3.7359    0.6313    0.0000 C   0  0  0  0  0  0  0  0  0  0  0  0
    4.5961    2.1346    0.0000 C   0  0  0  0  0  0  0  0  0  0  0  0
    3.7320    1.6312    0.0000 C   0  0  0  0  0  0  0  0  0  0  0  0
    8.0602    2.1479    0.0000 C   0  0  0  0  0  0  0  0  0  0  0  0
    2.8757   -0.8721    0.0000 C   0  0  0  0  0  0  0  0  0  0  0  0
    3.7243    3.6312    0.0000 C   0  0  0  0  0  0  0  0  0  0  0  0
    2.0000    1.6246    0.0000 C   0  0  0  0  0  0  0  0  0  0  0  0
  1  5  1  0
  1  6  1  0
  1  7  1  0
  1  8  2  0
  2 29  1  0
  3 18  1  0
  3 23  1  0
  4 19  2  0
  5 24  1  0
  9 34  1  0
  9 38  1  0
 10 35  1  0
 10 39  1  0
 11 36  1  0
 11 40  1  0
 12 19  1  0
 12 20  1  0
 12 24  1  0
 13 20  1  0
 13 26  2  0
 14 26  1  0
 14 28  1  0
 15 28  2  0
 15 30  1  0
 16 30  1  0
 16 31  1  0
 17 30  2  0
 17 37  1  0
 18 19  1  0
 18 21  1  0
 18 22  1  0
 20 23  2  0
 23 25  1  0
 25 27  2  0
 26 27  1  0
 28 29  1  0
 29 37  2  0
 31 32  2  0
 31 33  1  0
 32 35  1  0
 33 34  2  0
 34 36  1  0
 35 36  2  0
M  END
>  <PUBCHEM_COMPOUND_CID>  (1) 
11671467

>  <PUBCHEM_COMPOUND_CANONICALIZED>  (1) 
1

>  <PUBCHEM_CACTVS_COMPLEXITY>  (1) 
904

>  <PUBCHEM_CACTVS_HBOND_ACCEPTOR>  (1) 
15

>  <PUBCHEM_CACTVS_HBOND_DONOR>  (1) 
4

>  <PUBCHEM_CACTVS_ROTATABLE_BOND>  (1) 
10

>  <PUBCHEM_CACTVS_SUBSKEYS>  (1) 
AAADceB7vQIAAAAAAAAAAAAAAAAAAAAAAAA8WLEAAAAAAACx8AAAHwAQCCAADEzBkg4/9pfIFRCoQDd3dIaCiCkxYqAJ2CF/7JiPL+LE+d+HPCrv1x/a6CewcA8AAEAACgAAQAAAgAAUAACAAAAAAAAAAA==

>  <PUBCHEM_IUPAC_OPENEYE_NAME>  (1) 
[6-[[5-fluoro-2-(3,4,5-trimethoxyanilino)pyrimidin-4-yl]amino]-2,2-dimethyl-3-oxo-pyrido[3,2-b][1,4]oxazin-4-yl]methyl dihydrogen phosphate

>  <PUBCHEM_IUPAC_CAS_NAME>  (1) 
[6-[[5-fluoro-2-(3,4,5-trimethoxyanilino)-4-pyrimidinyl]amino]-2,2-dimethyl-3-oxo-4-pyrido[3,2-b][1,4]oxazinyl]methyl dihydrogen phosphate

>  <PUBCHEM_IUPAC_NAME_MARKUP>  (1) 
[6-[[5-fluoro-2-(3,4,5-trimethoxyanilino)pyrimidin-4-yl]amino]-2,2-dimethyl-3-oxopyrido[3,2-b][1,4]oxazin-4-yl]methyl dihydrogen phosphate

>  <PUBCHEM_IUPAC_NAME>  (1) 
[6-[[5-fluoro-2-(3,4,5-trimethoxyanilino)pyrimidin-4-yl]amino]-2,2-dimethyl-3-oxopyrido[3,2-b][1,4]oxazin-4-yl]methyl dihydrogen phosphate

>  <PUBCHEM_IUPAC_SYSTEMATIC_NAME>  (1) 
[6-[[5-fluoranyl-2-[(3,4,5-trimethoxyphenyl)amino]pyrimidin-4-yl]amino]-2,2-dimethyl-3-oxidanylidene-pyrido[3,2-b][1,4]oxazin-4-yl]methyl dihydrogen phosphate

>  <PUBCHEM_IUPAC_TRADITIONAL_NAME>  (1) 
[6-[[5-fluoro-2-(3,4,5-trimethoxyanilino)pyrimidin-4-yl]amino]-3-keto-2,2-dimethyl-pyrido[3,2-b][1,4]oxazin-4-yl]methyl dihydrogen phosphate

>  <PUBCHEM_IUPAC_INCHI>  (1) 
InChI=1S/C23H26FN6O9P/c1-23(2)21(31)30(11-38-40(32,33)34)20-14(39-23)6-7-17(28-20)27-19-13(24)10-25-22(29-19)26-12-8-15(35-3)18(37-5)16(9-12)36-4/h6-10H,11H2,1-5H3,(H2,32,33,34)(H2,25,26,27,28,29)

>  <PUBCHEM_IUPAC_INCHIKEY>  (1) 
GKDRMWXFWHEQQT-UHFFFAOYSA-N

>  <PUBCHEM_XLOGP3_AA>  (1) 
1.6

>  <PUBCHEM_EXACT_MASS>  (1) 
580.14829159

>  <PUBCHEM_MOLECULAR_FORMULA>  (1) 
C23H26FN6O9P

>  <PUBCHEM_MOLECULAR_WEIGHT>  (1) 
580.5

>  <PUBCHEM_OPENEYE_CAN_SMILES>  (1) 
CC1(C(=O)N(C2=C(O1)C=CC(=N2)NC3=NC(=NC=C3F)NC4=CC(=C(C(=C4)OC)OC)OC)COP(=O)(O)O)C

>  <PUBCHEM_OPENEYE_ISO_SMILES>  (1) 
CC1(C(=O)N(C2=C(O1)C=CC(=N2)NC3=NC(=NC=C3F)NC4=CC(=C(C(=C4)OC)OC)OC)COP(=O)(O)O)C

>  <PUBCHEM_CACTVS_TPSA>  (1) 
187

>  <PUBCHEM_MONOISOTOPIC_WEIGHT>  (1) 
580.14829159

>  <PUBCHEM_TOTAL_CHARGE>  (1) 
0

>  <PUBCHEM_HEAVY_ATOM_COUNT>  (1) 
40

>  <PUBCHEM_ATOM_DEF_STEREO_COUNT>  (1) 
0

>  <PUBCHEM_ATOM_UDEF_STEREO_COUNT>  (1) 
0

>  <PUBCHEM_BOND_DEF_STEREO_COUNT>  (1) 
0

>  <PUBCHEM_BOND_UDEF_STEREO_COUNT>  (1) 
0

>  <PUBCHEM_ISOTOPIC_ATOM_COUNT>  (1) 
0

>  <PUBCHEM_COMPONENT_COUNT>  (1) 
1

>  <PUBCHEM_CACTVS_TAUTO_COUNT>  (1) 
-1

>  <PUBCHEM_COORDINATE_TYPE>  (1) 
1
5
255

>  <PUBCHEM_BONDANNOTATIONS>  (1) 
13  20  8
13  26  8
15  28  8
15  30  8
17  30  8
17  37  8
20  23  8
23  25  8
25  27  8
26  27  8
28  29  8
29  37  8
31  32  8
31  33  8
32  35  8
33  34  8
34  36  8
35  36  8

$$$$
