98570
     RDKit          2D

 27 30  0  0  1  0  0  0  0  0999 V2000
    2.0000   -2.1712    0.0000 O   0  0  0  0  0  0  0  0  0  0  0  0
    3.4519   -3.0094    0.0000 O   0  0  0  0  0  0  0  0  0  0  0  0
    8.0322    2.6068    0.0000 O   0  0  0  0  0  0  0  0  0  0  0  0
    6.2838    0.5722    0.0000 O   0  0  0  0  0  0  0  0  0  0  0  0
    9.8139    1.5963    0.0000 O   0  0  0  0  0  0  0  0  0  0  0  0
    5.4178    1.0722    0.0000 N   0  0  0  0  0  0  0  0  0  0  0  0
    4.5518    1.5722    0.0000 C   0  0  0  0  0  0  0  0  0  0  0  0
    3.6857    1.0722    0.0000 C   0  0  0  0  0  0  0  0  0  0  0  0
    6.2838    1.5722    0.0000 C   0  0  0  0  0  0  0  0  0  0  0  0
    3.6857    0.0722    0.0000 C   0  0  0  0  0  0  0  0  0  0  0  0
    7.1498    1.0722    0.0000 C   0  0  0  0  0  0  0  0  0  0  0  0
    7.1498    0.0722    0.0000 C   0  0  0  0  0  0  0  0  0  0  0  0
    4.5518   -0.4278    0.0000 C   0  0  0  0  0  0  0  0  0  0  0  0
    6.2838   -0.4278    0.0000 C   0  0  0  0  0  0  0  0  0  0  0  0
    5.4178    0.0722    0.0000 C   0  0  0  0  0  0  0  0  0  0  0  0
    2.7757   -0.4347    0.0000 C   0  0  0  0  0  0  0  0  0  0  0  0
    8.0438    1.6068    0.0000 C   0  0  0  0  0  0  0  0  0  0  0  0
    4.5678   -1.4694    0.0000 C   0  0  0  0  0  0  0  0  0  0  0  0
    4.5518    0.5721    0.0000 C   0  0  0  0  0  0  0  0  0  0  0  0
    2.7677   -1.4763    0.0000 C   0  0  0  0  0  0  0  0  0  0  0  0
    3.6698   -1.9971    0.0000 C   0  0  0  0  0  0  0  0  0  0  0  0
    8.0438   -0.4625    0.0000 C   0  0  0  0  0  0  0  0  0  0  0  0
    8.9498    1.0930    0.0000 C   0  0  0  0  0  0  0  0  0  0  0  0
    8.9498    0.0513    0.0000 C   0  0  0  0  0  0  0  0  0  0  0  0
    2.4220   -3.1167    0.0000 C   0  0  0  0  0  0  0  0  0  0  0  0
    8.8924    3.1167    0.0000 C   0  0  0  0  0  0  0  0  0  0  0  0
   10.6819    1.0996    0.0000 C   0  0  0  0  0  0  0  0  0  0  0  0
  1 20  1  0
  1 25  1  0
  2 21  1  0
  2 25  1  0
  3 17  1  0
  3 26  1  0
  4 15  2  0
  5 23  1  0
  5 27  1  0
  6  7  1  0
  6  9  1  0
  6 19  1  0
  7  8  1  0
  8 10  1  0
  9 11  1  0
 10 13  2  0
 10 16  1  0
 11 12  2  0
 11 17  1  0
 12 14  1  0
 12 22  1  0
 13 15  1  0
 13 18  1  0
 14 15  1  0
 16 20  2  0
 17 23  2  0
 18 21  2  0
 20 21  1  0
 22 24  2  0
 23 24  1  0
M  END
>  <PUBCHEM_COMPOUND_CID>  (1) 
98570

>  <PUBCHEM_COMPOUND_CANONICALIZED>  (1) 
1

>  <PUBCHEM_CACTVS_COMPLEXITY>  (1) 
529

>  <PUBCHEM_CACTVS_HBOND_ACCEPTOR>  (1) 
6

>  <PUBCHEM_CACTVS_HBOND_DONOR>  (1) 
0

>  <PUBCHEM_CACTVS_ROTATABLE_BOND>  (1) 
2

>  <PUBCHEM_CACTVS_SUBSKEYS>  (1) 
AAADceB6OAAAAAAAAAAAAAAAAAAAASAAAAAwYAAAAAAAAEixQAAAHgAAAAAADATBmAcyDoMABACIAqBSAACCCAAkIAAIiAEOjMgdJjKEtRukMSpmwBGOqYe63fLOoAABAAAYQABAAAIAADCAAAAAAAAAAA==

>  <PUBCHEM_IUPAC_OPENEYE_NAME>  (1) 
7,8-dimethoxy-11-methyl-17,19-dioxa-11-azatetracyclo[12.7.0.04,9.016,20]henicosa-1(21),4(9),5,7,14,16(20)-hexaen-2-one

>  <PUBCHEM_IUPAC_CAS_NAME>  (1) 
7,8-dimethoxy-11-methyl-17,19-dioxa-11-azatetracyclo[12.7.0.04,9.016,20]heneicosa-1(21),4(9),5,7,14,16(20)-hexaen-2-one

>  <PUBCHEM_IUPAC_NAME_MARKUP>  (1) 
7,8-dimethoxy-11-methyl-17,19-dioxa-11-azatetracyclo[12.7.0.0<SUP>4,9</SUP>.0<SUP>16,20</SUP>]henicosa-1(21),4(9),5,7,14,16(20)-hexaen-2-one

>  <PUBCHEM_IUPAC_NAME>  (1) 
7,8-dimethoxy-11-methyl-17,19-dioxa-11-azatetracyclo[12.7.0.04,9.016,20]henicosa-1(21),4(9),5,7,14,16(20)-hexaen-2-one

>  <PUBCHEM_IUPAC_SYSTEMATIC_NAME>  (1) 
7,8-dimethoxy-11-methyl-17,19-dioxa-11-azatetracyclo[12.7.0.04,9.016,20]henicosa-1(21),4(9),5,7,14,16(20)-hexaen-2-one

>  <PUBCHEM_IUPAC_TRADITIONAL_NAME>  (1) 
7,8-dimethoxy-11-methyl-17,19-dioxa-11-azatetracyclo[12.7.0.04,9.016,20]heneicosa-1(21),4(9),5,7,14,16(20)-hexaen-2-one

>  <PUBCHEM_IUPAC_INCHI>  (1) 
InChI=1S/C21H23NO5/c1-22-7-6-14-9-19-20(27-12-26-19)10-15(14)17(23)8-13-4-5-18(24-2)21(25-3)16(13)11-22/h4-5,9-10H,6-8,11-12H2,1-3H3

>  <PUBCHEM_IUPAC_INCHIKEY>  (1) 
HYBRYAPKQCZIAE-UHFFFAOYSA-N

>  <PUBCHEM_XLOGP3_AA>  (1) 
2.9

>  <PUBCHEM_EXACT_MASS>  (1) 
369.15762283

>  <PUBCHEM_MOLECULAR_FORMULA>  (1) 
C21H23NO5

>  <PUBCHEM_MOLECULAR_WEIGHT>  (1) 
369.4

>  <PUBCHEM_OPENEYE_CAN_SMILES>  (1) 
CN1CCC2=CC3=C(C=C2C(=O)CC4=C(C1)C(=C(C=C4)OC)OC)OCO3

>  <PUBCHEM_OPENEYE_ISO_SMILES>  (1) 
CN1CCC2=CC3=C(C=C2C(=O)CC4=C(C1)C(=C(C=C4)OC)OC)OCO3

>  <PUBCHEM_CACTVS_TPSA>  (1) 
57.2

>  <PUBCHEM_MONOISOTOPIC_WEIGHT>  (1) 
369.15762283

>  <PUBCHEM_TOTAL_CHARGE>  (1) 
0

>  <PUBCHEM_HEAVY_ATOM_COUNT>  (1) 
27

>  <PUBCHEM_ATOM_DEF_STEREO_COUNT>  (1) 
0

>  <PUBCHEM_ATOM_UDEF_STEREO_COUNT>  (1) 
0

>  <PUBCHEM_BOND_DEF_STEREO_COUNT>  (1) 
0

>  <PUBCHEM_BOND_UDEF_STEREO_COUNT>  (1) 
0

>  <PUBCHEM_ISOTOPIC_ATOM_COUNT>  (1) 
0

>  <PUBCHEM_COMPONENT_COUNT>  (1) 
1

>  <PUBCHEM_CACTVS_TAUTO_COUNT>  (1) 
-1

>  <PUBCHEM_COORDINATE_TYPE>  (1) 
1
5
255

>  <PUBCHEM_BONDANNOTATIONS>  (1) 
10  13  8
10  16  8
11  12  8
11  17  8
12  22  8
13  18  8
16  20  8
17  23  8
18  21  8
20  21  8
22  24  8
23  24  8

$$$$
