107771
     RDKit          2D

 37 42  0  0  0  0  0  0  0  0999 V2000
    4.3827   -3.8580    0.0000 Cl  0  0  0  0  0  0  0  0  0  0  0  0
    4.4487    1.1661    0.0000 O   0  0  0  0  0  0  0  0  0  0  0  0
   11.4429   -1.8097    0.0000 O   0  0  0  0  0  0  0  0  0  0  0  0
    3.5827   -0.3339    0.0000 N   0  0  0  0  0  0  0  0  0  0  0  0
    7.0468    2.6661    0.0000 N   0  0  0  0  0  0  0  0  0  0  0  0
    7.9128   -0.8339    0.0000 N   0  0  0  0  0  0  0  0  0  0  0  0
    7.9128   -3.8339    0.0000 N   0  0  0  0  0  0  0  0  0  0  0  0
    9.6728   -1.7992    0.0000 N   0  0  0  0  0  0  0  0  0  0  0  0
    3.4782    0.6606    0.0000 C   0  0  0  0  0  0  0  0  0  0  0  0
    2.6691   -0.7406    0.0000 C   0  0  0  0  0  0  0  0  0  0  0  0
    7.9603    2.2594    0.0000 C   0  0  0  0  0  0  0  0  0  0  0  0
    7.1513    3.6606    0.0000 C   0  0  0  0  0  0  0  0  0  0  0  0
    2.5000    0.8685    0.0000 C   0  0  0  0  0  0  0  0  0  0  0  0
    2.0000    0.0025    0.0000 C   0  0  0  0  0  0  0  0  0  0  0  0
    8.6294    3.0025    0.0000 C   0  0  0  0  0  0  0  0  0  0  0  0
    8.1294    3.8686    0.0000 C   0  0  0  0  0  0  0  0  0  0  0  0
    4.4487   -0.8339    0.0000 C   0  0  0  0  0  0  0  0  0  0  0  0
    6.1808    2.1661    0.0000 C   0  0  0  0  0  0  0  0  0  0  0  0
    5.3147   -0.3339    0.0000 C   0  0  0  0  0  0  0  0  0  0  0  0
    6.1808    1.1661    0.0000 C   0  0  0  0  0  0  0  0  0  0  0  0
    5.3147    0.6661    0.0000 C   0  0  0  0  0  0  0  0  0  0  0  0
    6.1808   -0.8339    0.0000 C   0  0  0  0  0  0  0  0  0  0  0  0
    7.0468    0.6661    0.0000 C   0  0  0  0  0  0  0  0  0  0  0  0
    7.0468   -0.3339    0.0000 C   0  0  0  0  0  0  0  0  0  0  0  0
    7.9128   -1.8339    0.0000 C   0  0  0  0  0  0  0  0  0  0  0  0
    7.0468   -2.3339    0.0000 C   0  0  0  0  0  0  0  0  0  0  0  0
    8.7788   -2.3339    0.0000 C   0  0  0  0  0  0  0  0  0  0  0  0
    7.0468   -3.3339    0.0000 C   0  0  0  0  0  0  0  0  0  0  0  0
    8.7788   -3.3339    0.0000 C   0  0  0  0  0  0  0  0  0  0  0  0
    6.1528   -1.7992    0.0000 C   0  0  0  0  0  0  0  0  0  0  0  0
    6.1528   -3.8686    0.0000 C   0  0  0  0  0  0  0  0  0  0  0  0
    9.6728   -3.8686    0.0000 C   0  0  0  0  0  0  0  0  0  0  0  0
    5.2468   -2.3131    0.0000 C   0  0  0  0  0  0  0  0  0  0  0  0
    5.2468   -3.3547    0.0000 C   0  0  0  0  0  0  0  0  0  0  0  0
   10.5788   -2.3131    0.0000 C   0  0  0  0  0  0  0  0  0  0  0  0
   10.5788   -3.3547    0.0000 C   0  0  0  0  0  0  0  0  0  0  0  0
   12.3109   -2.3064    0.0000 C   0  0  0  0  0  0  0  0  0  0  0  0
  1 34  1  0
  2 21  1  0
  3 35  1  0
  3 37  1  0
  4  9  1  0
  4 10  1  0
  4 17  1  0
  5 11  1  0
  5 12  1  0
  5 18  1  0
  6 24  1  0
  6 25  1  0
  7 28  2  0
  7 29  1  0
  8 27  1  0
  8 35  2  0
  9 13  1  0
 10 14  1  0
 11 15  1  0
 12 16  1  0
 13 14  1  0
 15 16  1  0
 17 19  1  0
 18 20  1  0
 19 21  2  0
 19 22  1  0
 20 21  1  0
 20 23  2  0
 22 24  2  0
 23 24  1  0
 25 26  2  0
 25 27  1  0
 26 28  1  0
 26 30  1  0
 27 29  2  0
 28 31  1  0
 29 32  1  0
 30 33  2  0
 31 34  2  0
 32 36  2  0
 33 34  1  0
 35 36  1  0
M  END
>  <PUBCHEM_COMPOUND_CID>  (1) 
107771

>  <PUBCHEM_COMPOUND_CANONICALIZED>  (1) 
1

>  <PUBCHEM_CACTVS_COMPLEXITY>  (1) 
707

>  <PUBCHEM_CACTVS_HBOND_ACCEPTOR>  (1) 
7

>  <PUBCHEM_CACTVS_HBOND_DONOR>  (1) 
2

>  <PUBCHEM_CACTVS_ROTATABLE_BOND>  (1) 
7

>  <PUBCHEM_CACTVS_SUBSKEYS>  (1) 
AAADcfB7sAAEAAAAAAAAAAAAAAAAAWLAAAA8eIEAAAAAAACx/gAAHgIQCAAADA7BniYyxvPIFgCgAyRiRACCiCQhNyAImCA+fpgMZuLH89uUdChm0BHI+Aew0OEOBEACQAIKAAAIgASABBQAAAAAAAAAAA==

>  <PUBCHEM_IUPAC_OPENEYE_NAME>  (1) 
4-[(7-chloro-2-methoxy-benzo[b][1,5]naphthyridin-10-yl)amino]-2,6-bis(pyrrolidin-1-ylmethyl)phenol

>  <PUBCHEM_IUPAC_CAS_NAME>  (1) 
4-[(7-chloro-2-methoxy-10-benzo[b][1,5]naphthyridinyl)amino]-2,6-bis(1-pyrrolidinylmethyl)phenol

>  <PUBCHEM_IUPAC_NAME_MARKUP>  (1) 
4-[(7-chloro-2-methoxybenzo[b][1,5]naphthyridin-10-yl)amino]-2,6-bis(pyrrolidin-1-ylmethyl)phenol

>  <PUBCHEM_IUPAC_NAME>  (1) 
4-[(7-chloro-2-methoxybenzo[b][1,5]naphthyridin-10-yl)amino]-2,6-bis(pyrrolidin-1-ylmethyl)phenol

>  <PUBCHEM_IUPAC_SYSTEMATIC_NAME>  (1) 
4-[(7-chloranyl-2-methoxy-benzo[b][1,5]naphthyridin-10-yl)amino]-2,6-bis(pyrrolidin-1-ylmethyl)phenol

>  <PUBCHEM_IUPAC_TRADITIONAL_NAME>  (1) 
4-[(7-chloro-2-methoxy-benzo[b][1,5]naphthyridin-10-yl)amino]-2,6-bis(pyrrolidinomethyl)phenol

>  <PUBCHEM_IUPAC_INCHI>  (1) 
InChI=1S/C29H32ClN5O2/c1-37-26-9-8-24-28(33-26)27(23-7-6-21(30)16-25(23)32-24)31-22-14-19(17-34-10-2-3-11-34)29(36)20(15-22)18-35-12-4-5-13-35/h6-9,14-16,36H,2-5,10-13,17-18H2,1H3,(H,31,32)

>  <PUBCHEM_IUPAC_INCHIKEY>  (1) 
DJUFPMUQJKWIJB-UHFFFAOYSA-N

>  <PUBCHEM_XLOGP3_AA>  (1) 
5.3

>  <PUBCHEM_EXACT_MASS>  (1) 
517.2244530

>  <PUBCHEM_MOLECULAR_FORMULA>  (1) 
C29H32ClN5O2

>  <PUBCHEM_MOLECULAR_WEIGHT>  (1) 
518.0

>  <PUBCHEM_OPENEYE_CAN_SMILES>  (1) 
COC1=NC2=C(C3=C(C=C(C=C3)Cl)N=C2C=C1)NC4=CC(=C(C(=C4)CN5CCCC5)O)CN6CCCC6

>  <PUBCHEM_OPENEYE_ISO_SMILES>  (1) 
COC1=NC2=C(C3=C(C=C(C=C3)Cl)N=C2C=C1)NC4=CC(=C(C(=C4)CN5CCCC5)O)CN6CCCC6

>  <PUBCHEM_CACTVS_TPSA>  (1) 
73.8

>  <PUBCHEM_MONOISOTOPIC_WEIGHT>  (1) 
517.2244530

>  <PUBCHEM_TOTAL_CHARGE>  (1) 
0

>  <PUBCHEM_HEAVY_ATOM_COUNT>  (1) 
37

>  <PUBCHEM_ATOM_DEF_STEREO_COUNT>  (1) 
0

>  <PUBCHEM_ATOM_UDEF_STEREO_COUNT>  (1) 
0

>  <PUBCHEM_BOND_DEF_STEREO_COUNT>  (1) 
0

>  <PUBCHEM_BOND_UDEF_STEREO_COUNT>  (1) 
0

>  <PUBCHEM_ISOTOPIC_ATOM_COUNT>  (1) 
0

>  <PUBCHEM_COMPONENT_COUNT>  (1) 
1

>  <PUBCHEM_CACTVS_TAUTO_COUNT>  (1) 
-1

>  <PUBCHEM_COORDINATE_TYPE>  (1) 
1
5
255

>  <PUBCHEM_BONDANNOTATIONS>  (1) 
19  21  8
19  22  8
20  21  8
20  23  8
22  24  8
23  24  8
25  26  8
25  27  8
26  28  8
26  30  8
27  29  8
28  31  8
29  32  8
30  33  8
31  34  8
32  36  8
33  34  8
35  36  8
7  28  8
7  29  8
8  27  8
8  35  8

$$$$
