16682734
     RDKit          2D

 12 12  0  0  0  0  0  0  0  0999 V2000
    5.5321   -0.6900    0.0000 Bi  0  0  0  0  0  2  0  0  0  0  0  0
    4.6660   -1.1900    0.0000 O   0  0  0  0  0  0  0  0  0  0  0  0
    5.5321    0.3100    0.0000 O   0  0  0  0  0  0  0  0  0  0  0  0
    6.3981   -1.1900    0.0000 O   0  0  0  0  0  0  0  0  0  0  0  0
    4.6660    1.8100    0.0000 O   0  0  0  0  0  0  0  0  0  0  0  0
    3.8000    0.3100    0.0000 C   0  0  0  0  0  0  0  0  0  0  0  0
    3.8000   -0.6900    0.0000 C   0  0  0  0  0  0  0  0  0  0  0  0
    2.9061    0.8447    0.0000 C   0  0  0  0  0  0  0  0  0  0  0  0
    2.9061   -1.2247    0.0000 C   0  0  0  0  0  0  0  0  0  0  0  0
    4.6660    0.8100    0.0000 C   0  0  0  0  0  0  0  0  0  0  0  0
    2.0000    0.3308    0.0000 C   0  0  0  0  0  0  0  0  0  0  0  0
    2.0000   -0.7108    0.0000 C   0  0  0  0  0  0  0  0  0  0  0  0
  1  2  1  0
  1  3  1  0
  2  7  1  0
  3 10  1  0
  5 10  2  0
  6  7  2  0
  6  8  1  0
  6 10  1  0
  7  9  1  0
  8 11  2  0
  9 12  2  0
 11 12  1  0
M  RAD  1   1   2
M  END
>  <PUBCHEM_COMPOUND_CID>  (1) 
16682734

>  <PUBCHEM_COMPOUND_CANONICALIZED>  (1) 
1

>  <PUBCHEM_CACTVS_COMPLEXITY>  (1) 
173

>  <PUBCHEM_CACTVS_HBOND_ACCEPTOR>  (1) 
4

>  <PUBCHEM_CACTVS_HBOND_DONOR>  (1) 
1

>  <PUBCHEM_CACTVS_ROTATABLE_BOND>  (1) 
0

>  <PUBCHEM_CACTVS_SUBSKEYS>  (1) 
AAADcYBgOAAAAAAAAAAAACAAAAAAAAAAAAA0QAAAAAAAAACRAAAAGgAACAAADASAmAAwDoAAAACIAiDSCAACAAAkIAAIiAEGCMgIJzaAFRKAMUAl4BEIiYeIyCCOAAAAAAAIAAAAAAAAABAAAAAAAAAAAA==

>  <PUBCHEM_IUPAC_INCHI>  (1) 
InChI=1S/C7H6O3.Bi.H2O/c8-6-4-2-1-3-5(6)7(9)10;;/h1-4,8H,(H,9,10);;1H2/q;+2;/p-2

>  <PUBCHEM_IUPAC_INCHIKEY>  (1) 
QBWLKDFBINPHFT-UHFFFAOYSA-L

>  <PUBCHEM_EXACT_MASS>  (1) 
363.00701

>  <PUBCHEM_MOLECULAR_FORMULA>  (1) 
C7H6BiO4

>  <PUBCHEM_MOLECULAR_WEIGHT>  (1) 
363.10

>  <PUBCHEM_OPENEYE_CAN_SMILES>  (1) 
C1=CC=C2C(=C1)C(=O)O[Bi]O2.O

>  <PUBCHEM_OPENEYE_ISO_SMILES>  (1) 
C1=CC=C2C(=C1)C(=O)O[Bi]O2.O

>  <PUBCHEM_CACTVS_TPSA>  (1) 
36.5

>  <PUBCHEM_MONOISOTOPIC_WEIGHT>  (1) 
363.00701

>  <PUBCHEM_TOTAL_CHARGE>  (1) 
0

>  <PUBCHEM_HEAVY_ATOM_COUNT>  (1) 
12

>  <PUBCHEM_ATOM_DEF_STEREO_COUNT>  (1) 
0

>  <PUBCHEM_ATOM_UDEF_STEREO_COUNT>  (1) 
0

>  <PUBCHEM_BOND_DEF_STEREO_COUNT>  (1) 
0

>  <PUBCHEM_BOND_UDEF_STEREO_COUNT>  (1) 
0

>  <PUBCHEM_ISOTOPIC_ATOM_COUNT>  (1) 
0

>  <PUBCHEM_COMPONENT_COUNT>  (1) 
2

>  <PUBCHEM_CACTVS_TAUTO_COUNT>  (1) 
-1

>  <PUBCHEM_NONSTANDARDBOND>  (1) 
1  4  6

>  <PUBCHEM_COORDINATE_TYPE>  (1) 
1
5
255

>  <PUBCHEM_BONDANNOTATIONS>  (1) 
11  12  8
6  7  8
6  8  8
7  9  8
8  11  8
9  12  8

$$$$
