155489963
     RDKit          2D

 39 41  0  0  1  0  0  0  0  0999 V2000
    8.0622   -3.5000    0.0000 O   0  0  0  0  0  0  0  0  0  0  0  0
    5.4641   -1.0000    0.0000 O   0  0  0  0  0  0  0  0  0  0  0  0
   12.6477   -1.1151    0.0000 O   0  0  0  0  0  0  0  0  0  0  0  0
   10.6603   -4.0000    0.0000 O   0  0  0  0  0  0  0  0  0  0  0  0
    4.5981    2.5000    0.0000 O   0  0  0  0  0  0  0  0  0  0  0  0
    6.3301    2.5000    0.0000 O   0  0  0  0  0  0  0  0  0  0  0  0
    7.1962   -1.0000    0.0000 N   0  0  0  0  0  0  0  0  0  0  0  0
    8.9282   -2.0000    0.0000 N   0  0  0  0  0  0  0  0  0  0  0  0
   13.1090   -2.8364    0.0000 N   0  0  0  0  0  0  0  0  0  0  0  0
    5.4641    1.0000    0.0000 N   0  0  0  0  0  0  0  0  0  0  0  0
    6.3301   -3.5000    0.0000 C   0  0  0  0  0  0  0  0  0  0  0  0
    5.4641   -4.0000    0.0000 C   0  0  0  0  0  0  0  0  0  0  0  0
    7.1962   -4.0000    0.0000 C   0  0  0  0  0  0  0  0  0  0  0  0
    6.3301   -2.5000    0.0000 C   0  0  0  0  0  0  0  0  0  0  0  0
    5.4641   -5.0000    0.0000 C   0  0  0  0  0  0  0  0  0  0  0  0
    7.1962   -5.0000    0.0000 C   0  0  0  0  0  0  0  0  0  0  0  0
    6.3301   -5.5000    0.0000 C   0  0  0  0  0  0  0  0  0  0  0  0
    7.1962   -2.0000    0.0000 C   0  0  0  0  0  0  0  0  0  0  0  0
    8.0622   -2.5000    0.0000 C   0  0  0  0  0  0  0  0  0  0  0  0
   11.5263   -2.5000    0.0000 C   0  0  0  0  0  0  0  0  0  0  0  0
   10.6603   -2.0000    0.0000 C   0  0  0  0  0  0  0  0  0  0  0  0
    9.7942   -2.5000    0.0000 C   0  0  0  0  0  0  0  0  0  0  0  0
   11.6308   -3.4945    0.0000 C   0  0  0  0  0  0  0  0  0  0  0  0
    6.3301   -0.5000    0.0000 C   0  0  0  0  0  0  0  0  0  0  0  0
   12.6090   -3.7024    0.0000 C   0  0  0  0  0  0  0  0  0  0  0  0
   12.4398   -2.0933    0.0000 C   0  0  0  0  0  0  0  0  0  0  0  0
    6.3301    0.5000    0.0000 C   0  0  0  0  0  0  0  0  0  0  0  0
    7.1962    1.0000    0.0000 C   0  0  0  0  0  0  0  0  0  0  0  0
    9.7942   -3.5000    0.0000 C   0  0  0  0  0  0  0  0  0  0  0  0
    7.1962    2.0000    0.0000 C   0  0  0  0  0  0  0  0  0  0  0  0
    8.0622    0.5000    0.0000 C   0  0  0  0  0  0  0  0  0  0  0  0
    5.4641    2.0000    0.0000 C   0  0  0  0  0  0  0  0  0  0  0  0
    4.5981    3.5000    0.0000 C   0  0  0  0  0  0  0  0  0  0  0  0
    3.7320    4.0000    0.0000 C   0  0  0  0  0  0  0  0  0  0  0  0
    3.7320    5.0000    0.0000 C   0  0  0  0  0  0  0  0  0  0  0  0
    2.8660    3.5000    0.0000 C   0  0  0  0  0  0  0  0  0  0  0  0
    2.8660    5.5000    0.0000 C   0  0  0  0  0  0  0  0  0  0  0  0
    2.0000    4.0000    0.0000 C   0  0  0  0  0  0  0  0  0  0  0  0
    2.0000    5.0000    0.0000 C   0  0  0  0  0  0  0  0  0  0  0  0
  1 19  2  0
  2 24  2  0
  3 26  2  0
  4 29  2  0
  5 32  1  0
  5 33  1  0
  6 32  2  0
 18  7  1  0
  7 24  1  0
  8 19  1  0
 22  8  1  0
  9 25  1  0
  9 26  1  0
 27 10  1  1
 10 32  1  0
 11 12  1  0
 11 13  1  0
 11 14  1  0
 12 15  1  0
 13 16  1  0
 18 14  1  6
 15 17  1  0
 16 17  1  0
 18 19  1  0
 20 21  1  1
 20 23  1  0
 20 26  1  0
 22 21  1  1
 22 29  1  0
 23 25  1  0
 24 27  1  0
 27 28  1  0
 28 30  1  0
 28 31  1  0
 33 34  1  0
 34 35  2  0
 34 36  1  0
 35 37  1  0
 36 38  2  0
 37 39  2  0
 38 39  1  0
M  END
>  <PUBCHEM_COMPOUND_CID>  (1) 
155489963

>  <PUBCHEM_COMPOUND_CANONICALIZED>  (1) 
1

>  <PUBCHEM_CACTVS_COMPLEXITY>  (1) 
838

>  <PUBCHEM_CACTVS_HBOND_ACCEPTOR>  (1) 
6

>  <PUBCHEM_CACTVS_HBOND_DONOR>  (1) 
4

>  <PUBCHEM_CACTVS_ROTATABLE_BOND>  (1) 
14

>  <PUBCHEM_CACTVS_SUBSKEYS>  (1) 
AAADcfB7uAAAAAAAAAAAAAAAAAAAAWAAAAAwYAAAAAAAAAABAAAAHgAQAAAADSjhmAYyCILABACIAilSmAACAAAgAAAIiIGICIkIZjKAsTicMAAk1gGIqAecy6COAAAAAAAAAAAAAAAAAAAAAAAAAAAAAA==

>  <PUBCHEM_IUPAC_OPENEYE_NAME>  (1) 
benzyl N-[(1S)-1-[[(1S)-1-(cyclohexylmethyl)-2-[[(1S)-1-formyl-2-[(3S)-2-oxopyrrolidin-3-yl]ethyl]amino]-2-oxo-ethyl]carbamoyl]-2-methyl-propyl]carbamate

>  <PUBCHEM_IUPAC_CAS_NAME>  (1) 
N-[(2S)-1-[[(2S)-3-cyclohexyl-1-oxo-1-[[(2S)-1-oxo-3-[(3S)-2-oxo-3-pyrrolidinyl]propan-2-yl]amino]propan-2-yl]amino]-3-methyl-1-oxobutan-2-yl]carbamic acid (phenylmethyl) ester

>  <PUBCHEM_IUPAC_NAME_MARKUP>  (1) 
benzyl <I>N</I>-[(2<I>S</I>)-1-[[(2<I>S</I>)-3-cyclohexyl-1-oxo-1-[[(2<I>S</I>)-1-oxo-3-[(3<I>S</I>)-2-oxopyrrolidin-3-yl]propan-2-yl]amino]propan-2-yl]amino]-3-methyl-1-oxobutan-2-yl]carbamate

>  <PUBCHEM_IUPAC_NAME>  (1) 
benzyl N-[(2S)-1-[[(2S)-3-cyclohexyl-1-oxo-1-[[(2S)-1-oxo-3-[(3S)-2-oxopyrrolidin-3-yl]propan-2-yl]amino]propan-2-yl]amino]-3-methyl-1-oxobutan-2-yl]carbamate

>  <PUBCHEM_IUPAC_SYSTEMATIC_NAME>  (1) 
(phenylmethyl) N-[(2S)-1-[[(2S)-3-cyclohexyl-1-oxidanylidene-1-[[(2S)-1-oxidanylidene-3-[(3S)-2-oxidanylidenepyrrolidin-3-yl]propan-2-yl]amino]propan-2-yl]amino]-3-methyl-1-oxidanylidene-butan-2-yl]carbamate

>  <PUBCHEM_IUPAC_TRADITIONAL_NAME>  (1) 
N-[(1S)-1-[[(1S)-1-(cyclohexylmethyl)-2-[[(1S)-1-formyl-2-[(3S)-2-ketopyrrolidin-3-yl]ethyl]amino]-2-keto-ethyl]carbamoyl]-2-methyl-propyl]carbamic acid benzyl ester

>  <PUBCHEM_IUPAC_INCHI>  (1) 
InChI=1S/C29H42N4O6/c1-19(2)25(33-29(38)39-18-21-11-7-4-8-12-21)28(37)32-24(15-20-9-5-3-6-10-20)27(36)31-23(17-34)16-22-13-14-30-26(22)35/h4,7-8,11-12,17,19-20,22-25H,3,5-6,9-10,13-16,18H2,1-2H3,(H,30,35)(H,31,36)(H,32,37)(H,33,38)/t22-,23-,24-,25-/m0/s1

>  <PUBCHEM_IUPAC_INCHIKEY>  (1) 
HWYRKZDETMXFKE-QORCZRPOSA-N

>  <PUBCHEM_XLOGP3_AA>  (1) 
4

>  <PUBCHEM_EXACT_MASS>  (1) 
542.31043507

>  <PUBCHEM_MOLECULAR_FORMULA>  (1) 
C29H42N4O6

>  <PUBCHEM_MOLECULAR_WEIGHT>  (1) 
542.7

>  <PUBCHEM_OPENEYE_CAN_SMILES>  (1) 
CC(C)C(C(=O)NC(CC1CCCCC1)C(=O)NC(CC2CCNC2=O)C=O)NC(=O)OCC3=CC=CC=C3

>  <PUBCHEM_OPENEYE_ISO_SMILES>  (1) 
CC(C)[C@@H](C(=O)N[C@@H](CC1CCCCC1)C(=O)N[C@@H](C[C@@H]2CCNC2=O)C=O)NC(=O)OCC3=CC=CC=C3

>  <PUBCHEM_CACTVS_TPSA>  (1) 
143

>  <PUBCHEM_MONOISOTOPIC_WEIGHT>  (1) 
542.31043507

>  <PUBCHEM_TOTAL_CHARGE>  (1) 
0

>  <PUBCHEM_HEAVY_ATOM_COUNT>  (1) 
39

>  <PUBCHEM_ATOM_DEF_STEREO_COUNT>  (1) 
4

>  <PUBCHEM_ATOM_UDEF_STEREO_COUNT>  (1) 
0

>  <PUBCHEM_BOND_DEF_STEREO_COUNT>  (1) 
0

>  <PUBCHEM_BOND_UDEF_STEREO_COUNT>  (1) 
0

>  <PUBCHEM_ISOTOPIC_ATOM_COUNT>  (1) 
0

>  <PUBCHEM_COMPONENT_COUNT>  (1) 
1

>  <PUBCHEM_CACTVS_TAUTO_COUNT>  (1) 
-1

>  <PUBCHEM_COORDINATE_TYPE>  (1) 
1
5
255

>  <PUBCHEM_BONDANNOTATIONS>  (1) 
27  10  5
20  21  5
34  35  8
34  36  8
35  37  8
36  38  8
37  39  8
38  39  8
18  7  6
22  8  5

$$$$
