155292991
     RDKit          2D

 26 29  0  0  0  0  0  0  0  0999 V2000
    2.0000   -3.1749    0.0000 Cl  0  0  0  0  0  0  0  0  0  0  0  0
    7.3667   -0.1562    0.0000 O   0  0  0  0  0  0  0  0  0  0  0  0
    5.5301   -0.1507    0.0000 O   0  0  0  0  0  0  0  0  0  0  0  0
    7.9828    3.4968    0.0000 O   0  0  0  0  0  0  0  0  0  0  0  0
   11.1474    2.0879    0.0000 O   0  0  0  0  0  0  0  0  0  0  0  0
    9.9718    3.7059    0.0000 O   0  0  0  0  0  0  0  0  0  0  0  0
    5.5301   -3.1507    0.0000 N   0  0  0  0  0  0  0  0  0  0  0  0
    8.1757   -1.5574    0.0000 N   0  0  0  0  0  0  0  0  0  0  0  0
    8.8448   -0.8143    0.0000 N   0  0  0  0  0  0  0  0  0  0  0  0
    4.6641   -1.6507    0.0000 C   0  0  0  0  0  0  0  0  0  0  0  0
    4.6641   -2.6507    0.0000 C   0  0  0  0  0  0  0  0  0  0  0  0
    6.3961   -1.6507    0.0000 C   0  0  0  0  0  0  0  0  0  0  0  0
    5.5301   -1.1507    0.0000 C   0  0  0  0  0  0  0  0  0  0  0  0
    6.3961   -2.6507    0.0000 C   0  0  0  0  0  0  0  0  0  0  0  0
    7.2622   -1.1507    0.0000 C   0  0  0  0  0  0  0  0  0  0  0  0
    3.7702   -1.1160    0.0000 C   0  0  0  0  0  0  0  0  0  0  0  0
    3.7702   -3.1854    0.0000 C   0  0  0  0  0  0  0  0  0  0  0  0
    8.7516    0.9653    0.0000 C   0  0  0  0  0  0  0  0  0  0  0  0
    8.3448    0.0517    0.0000 C   0  0  0  0  0  0  0  0  0  0  0  0
    2.8641   -1.6299    0.0000 C   0  0  0  0  0  0  0  0  0  0  0  0
    2.8641   -2.6715    0.0000 C   0  0  0  0  0  0  0  0  0  0  0  0
    9.7461    1.0698    0.0000 C   0  0  0  0  0  0  0  0  0  0  0  0
    8.1638    1.7743    0.0000 C   0  0  0  0  0  0  0  0  0  0  0  0
    8.5705    2.6878    0.0000 C   0  0  0  0  0  0  0  0  0  0  0  0
   10.1528    1.9833    0.0000 C   0  0  0  0  0  0  0  0  0  0  0  0
    9.5651    2.7924    0.0000 C   0  0  0  0  0  0  0  0  0  0  0  0
  1 21  1  0
  2 15  1  0
  2 19  1  0
  3 13  2  0
  4 24  1  0
  5 25  1  0
  6 26  1  0
  7 11  1  0
  7 14  1  0
  8  9  1  0
  8 15  2  0
  9 19  2  0
 10 11  2  0
 10 13  1  0
 10 16  1  0
 11 17  1  0
 12 13  1  0
 12 14  2  0
 12 15  1  0
 16 20  2  0
 17 21  2  0
 18 19  1  0
 18 22  2  0
 18 23  1  0
 20 21  1  0
 22 25  1  0
 23 24  2  0
 24 26  1  0
 25 26  2  0
M  END
>  <PUBCHEM_COMPOUND_CID>  (1) 
155292991

>  <PUBCHEM_COMPOUND_CANONICALIZED>  (1) 
1

>  <PUBCHEM_CACTVS_COMPLEXITY>  (1) 
579

>  <PUBCHEM_CACTVS_HBOND_ACCEPTOR>  (1) 
8

>  <PUBCHEM_CACTVS_HBOND_DONOR>  (1) 
4

>  <PUBCHEM_CACTVS_ROTATABLE_BOND>  (1) 
2

>  <PUBCHEM_CACTVS_SUBSKEYS>  (1) 
AAADccB7OAAEAAAAAAAAAAAAAAAAAWAAAAAwYIAAAAAAAACB0AAAHgIYCAAADA7BmiQwxoLABkCqAqV2UACSAAAtJwAaiKEu7tgJJ77Lt5uOcYll+BVJ+cf6/b/eJAABCAICQABIAAIQBASAAAAAAAAAAA==

>  <PUBCHEM_IUPAC_OPENEYE_NAME>  (1) 
7-chloro-3-[5-(3,4,5-trihydroxyphenyl)-1,3,4-oxadiazol-2-yl]-1H-quinolin-4-one

>  <PUBCHEM_IUPAC_CAS_NAME>  (1) 
7-chloro-3-[5-(3,4,5-trihydroxyphenyl)-1,3,4-oxadiazol-2-yl]-1H-quinolin-4-one

>  <PUBCHEM_IUPAC_NAME_MARKUP>  (1) 
7-chloro-3-[5-(3,4,5-trihydroxyphenyl)-1,3,4-oxadiazol-2-yl]-1<I>H</I>-quinolin-4-one

>  <PUBCHEM_IUPAC_NAME>  (1) 
7-chloro-3-[5-(3,4,5-trihydroxyphenyl)-1,3,4-oxadiazol-2-yl]-1H-quinolin-4-one

>  <PUBCHEM_IUPAC_SYSTEMATIC_NAME>  (1) 
7-chloranyl-3-[5-[3,4,5-tris(oxidanyl)phenyl]-1,3,4-oxadiazol-2-yl]-1H-quinolin-4-one

>  <PUBCHEM_IUPAC_TRADITIONAL_NAME>  (1) 
7-chloro-3-[5-(3,4,5-trihydroxyphenyl)-1,3,4-oxadiazol-2-yl]-4-quinolone

>  <PUBCHEM_IUPAC_INCHI>  (1) 
InChI=1S/C17H10ClN3O5/c18-8-1-2-9-11(5-8)19-6-10(14(9)24)17-21-20-16(26-17)7-3-12(22)15(25)13(23)4-7/h1-6,22-23,25H,(H,19,24)

>  <PUBCHEM_IUPAC_INCHIKEY>  (1) 
FCYYMJKODNXXRY-UHFFFAOYSA-N

>  <PUBCHEM_XLOGP3_AA>  (1) 
2.3

>  <PUBCHEM_EXACT_MASS>  (1) 
371.0308981

>  <PUBCHEM_MOLECULAR_FORMULA>  (1) 
C17H10ClN3O5

>  <PUBCHEM_MOLECULAR_WEIGHT>  (1) 
371.7

>  <PUBCHEM_OPENEYE_CAN_SMILES>  (1) 
C1=CC2=C(C=C1Cl)NC=C(C2=O)C3=NN=C(O3)C4=CC(=C(C(=C4)O)O)O

>  <PUBCHEM_OPENEYE_ISO_SMILES>  (1) 
C1=CC2=C(C=C1Cl)NC=C(C2=O)C3=NN=C(O3)C4=CC(=C(C(=C4)O)O)O

>  <PUBCHEM_CACTVS_TPSA>  (1) 
129

>  <PUBCHEM_MONOISOTOPIC_WEIGHT>  (1) 
371.0308981

>  <PUBCHEM_TOTAL_CHARGE>  (1) 
0

>  <PUBCHEM_HEAVY_ATOM_COUNT>  (1) 
26

>  <PUBCHEM_ATOM_DEF_STEREO_COUNT>  (1) 
0

>  <PUBCHEM_ATOM_UDEF_STEREO_COUNT>  (1) 
0

>  <PUBCHEM_BOND_DEF_STEREO_COUNT>  (1) 
0

>  <PUBCHEM_BOND_UDEF_STEREO_COUNT>  (1) 
0

>  <PUBCHEM_ISOTOPIC_ATOM_COUNT>  (1) 
0

>  <PUBCHEM_COMPONENT_COUNT>  (1) 
1

>  <PUBCHEM_CACTVS_TAUTO_COUNT>  (1) 
-1

>  <PUBCHEM_COORDINATE_TYPE>  (1) 
1
5
255

>  <PUBCHEM_BONDANNOTATIONS>  (1) 
10  11  8
10  13  8
10  16  8
11  17  8
12  13  8
12  14  8
16  20  8
17  21  8
18  22  8
18  23  8
2  15  8
2  19  8
20  21  8
22  25  8
23  24  8
24  26  8
25  26  8
7  11  8
7  14  8
8  15  8
8  9  8
9  19  8

$$$$
