11965427
     RDKit          2D

 41 45  0  0  1  0  0  0  0  0999 V2000
   10.6603    1.4521    0.0000 Cl  0  0  0  0  0  0  0  0  0  0  0  0
    8.9282   -1.5479    0.0000 Cl  0  0  0  0  0  0  0  0  0  0  0  0
    2.8660   -0.0479    0.0000 S   0  0  0  0  0  0  0  0  0  0  0  0
   14.1865   -2.5721    0.0000 O   0  0  0  0  0  0  0  0  0  0  0  0
    8.9282    1.4521    0.0000 O   0  0  0  0  0  0  0  0  0  0  0  0
   17.7354   -1.3905    0.0000 O   0  0  0  0  0  0  0  0  0  0  0  0
    6.3301    1.9521    0.0000 O   0  0  0  0  0  0  0  0  0  0  0  0
    8.0622    1.9521    0.0000 O   0  0  0  0  0  0  0  0  0  0  0  0
    2.3660    0.8181    0.0000 O   0  0  0  0  0  0  0  0  0  0  0  0
    3.3660   -0.9140    0.0000 O   0  0  0  0  0  0  0  0  0  0  0  0
   13.3263   -1.0687    0.0000 N   0  0  0  0  0  0  0  0  0  0  0  0
    8.0622   -0.0479    0.0000 N   0  0  0  0  0  0  0  0  0  0  0  0
   12.4202    0.4867    0.0000 C   0  0  0  0  0  0  0  0  0  0  0  0
   13.3263   -0.0271    0.0000 C   0  0  0  0  0  0  0  0  0  0  0  0
   11.5263   -0.0479    0.0000 C   0  0  0  0  0  0  0  0  0  0  0  0
   12.4202   -1.5826    0.0000 C   0  0  0  0  0  0  0  0  0  0  0  0
   11.5263   -1.0479    0.0000 C   0  0  0  0  0  0  0  0  0  0  0  0
   10.6603    0.4521    0.0000 C   0  0  0  0  0  0  0  0  0  0  0  0
   10.6603   -1.5479    0.0000 C   0  0  0  0  0  0  0  0  0  0  0  0
    9.7942   -0.0479    0.0000 C   0  0  0  0  0  0  0  0  0  0  0  0
   14.1904   -1.5721    0.0000 C   0  0  0  0  0  0  0  0  0  0  0  0
    9.7942   -1.0479    0.0000 C   0  0  0  0  0  0  0  0  0  0  0  0
    7.1962    0.4521    0.0000 C   0  0  0  0  0  0  0  0  0  0  0  0
   15.0583   -1.0754    0.0000 C   0  0  0  0  0  0  0  0  0  0  0  0
    8.9282    0.4521    0.0000 C   0  0  0  0  0  0  0  0  0  0  0  0
    6.3301   -0.0479    0.0000 C   0  0  0  0  0  0  0  0  0  0  0  0
    5.4641    0.4521    0.0000 C   0  0  0  0  0  0  0  0  0  0  0  0
   15.9224   -1.5788    0.0000 C   0  0  0  0  0  0  0  0  0  0  0  0
   15.0622   -0.0754    0.0000 C   0  0  0  0  0  0  0  0  0  0  0  0
    4.5981   -0.0479    0.0000 C   0  0  0  0  0  0  0  0  0  0  0  0
   16.7904   -1.0821    0.0000 C   0  0  0  0  0  0  0  0  0  0  0  0
    7.1962    1.4521    0.0000 C   0  0  0  0  0  0  0  0  0  0  0  0
    3.7320    0.4521    0.0000 C   0  0  0  0  0  0  0  0  0  0  0  0
   16.7942   -0.0821    0.0000 C   0  0  0  0  0  0  0  0  0  0  0  0
    5.4641    1.4521    0.0000 C   0  0  0  0  0  0  0  0  0  0  0  0
   15.9301    0.4212    0.0000 C   0  0  0  0  0  0  0  0  0  0  0  0
    3.7320    1.4521    0.0000 C   0  0  0  0  0  0  0  0  0  0  0  0
    4.5981    1.9521    0.0000 C   0  0  0  0  0  0  0  0  0  0  0  0
   17.7416    0.2190    0.0000 C   0  0  0  0  0  0  0  0  0  0  0  0
   18.3221   -0.5880    0.0000 C   0  0  0  0  0  0  0  0  0  0  0  0
    2.0000   -0.5479    0.0000 C   0  0  0  0  0  0  0  0  0  0  0  0
  1 18  1  0
  2 22  1  0
  3  9  2  0
  3 10  2  0
  3 33  1  0
  3 41  1  0
  4 21  2  0
  5 25  2  0
  6 31  1  0
  6 40  1  0
  7 32  1  0
  8 32  2  0
 11 14  1  0
 11 16  1  0
 11 21  1  0
 23 12  1  0
 12 25  1  0
 13 14  1  0
 13 15  1  0
 15 17  2  0
 15 18  1  0
 16 17  1  0
 17 19  1  0
 18 20  2  0
 19 22  2  0
 20 22  1  0
 20 25  1  0
 21 24  1  0
 23 26  1  1
 23 32  1  0
 24 28  1  0
 24 29  2  0
 26 27  1  0
 27 30  2  0
 27 35  1  0
 28 31  2  0
 29 36  1  0
 30 33  1  0
 31 34  1  0
 33 37  2  0
 34 36  2  0
 34 39  1  0
 35 38  2  0
 37 38  1  0
 39 40  2  0
M  END
>  <PUBCHEM_COMPOUND_CID>  (1) 
11965427

>  <PUBCHEM_COMPOUND_CANONICALIZED>  (1) 
1

>  <PUBCHEM_CACTVS_COMPLEXITY>  (1) 
1100

>  <PUBCHEM_CACTVS_HBOND_ACCEPTOR>  (1) 
7

>  <PUBCHEM_CACTVS_HBOND_DONOR>  (1) 
2

>  <PUBCHEM_CACTVS_ROTATABLE_BOND>  (1) 
7

>  <PUBCHEM_CACTVS_SUBSKEYS>  (1) 
AAADceB7OABGAAAAAAAAAAAAAAAAASAAAAA8YMEAAAAAAEix9AAAHgYQCAAADC7h2CayD8PABkqIAqnSmHDCCAAkLRAIiJmODsgOJjKltzuGeSjk1hGYrYe/yPCOxAADoACZAACIAAdAATIAAAAAAAAAAA==

>  <PUBCHEM_IUPAC_OPENEYE_NAME>  (1) 
(2S)-2-[[2-(benzofuran-6-carbonyl)-5,7-dichloro-3,4-dihydro-1H-isoquinoline-6-carbonyl]amino]-3-(3-methylsulfonylphenyl)propanoic acid

>  <PUBCHEM_IUPAC_CAS_NAME>  (1) 
(2S)-2-[[[2-[6-benzofuranyl(oxo)methyl]-5,7-dichloro-3,4-dihydro-1H-isoquinolin-6-yl]-oxomethyl]amino]-3-(3-methylsulfonylphenyl)propanoic acid

>  <PUBCHEM_IUPAC_NAME_MARKUP>  (1) 
(2<I>S</I>)-2-[[2-(1-benzofuran-6-carbonyl)-5,7-dichloro-3,4-dihydro-1<I>H</I>-isoquinoline-6-carbonyl]amino]-3-(3-methylsulfonylphenyl)propanoic acid

>  <PUBCHEM_IUPAC_NAME>  (1) 
(2S)-2-[[2-(1-benzofuran-6-carbonyl)-5,7-dichloro-3,4-dihydro-1H-isoquinoline-6-carbonyl]amino]-3-(3-methylsulfonylphenyl)propanoic acid

>  <PUBCHEM_IUPAC_SYSTEMATIC_NAME>  (1) 
(2S)-2-[[2-(1-benzofuran-6-ylcarbonyl)-5,7-bis(chloranyl)-3,4-dihydro-1H-isoquinolin-6-yl]carbonylamino]-3-(3-methylsulfonylphenyl)propanoic acid

>  <PUBCHEM_IUPAC_TRADITIONAL_NAME>  (1) 
(2S)-2-[[2-(benzofuran-6-carbonyl)-5,7-dichloro-3,4-dihydro-1H-isoquinoline-6-carbonyl]amino]-3-(3-mesylphenyl)propionic acid

>  <PUBCHEM_IUPAC_INCHI>  (1) 
InChI=1S/C29H24Cl2N2O7S/c1-41(38,39)20-4-2-3-16(11-20)12-23(29(36)37)32-27(34)25-22(30)13-19-15-33(9-7-21(19)26(25)31)28(35)18-6-5-17-8-10-40-24(17)14-18/h2-6,8,10-11,13-14,23H,7,9,12,15H2,1H3,(H,32,34)(H,36,37)/t23-/m0/s1

>  <PUBCHEM_IUPAC_INCHIKEY>  (1) 
JFOZKMSJYSPYLN-QHCPKHFHSA-N

>  <PUBCHEM_XLOGP3_AA>  (1) 
4.7

>  <PUBCHEM_EXACT_MASS>  (1) 
614.0681277

>  <PUBCHEM_MOLECULAR_FORMULA>  (1) 
C29H24Cl2N2O7S

>  <PUBCHEM_MOLECULAR_WEIGHT>  (1) 
615.5

>  <PUBCHEM_OPENEYE_CAN_SMILES>  (1) 
CS(=O)(=O)C1=CC=CC(=C1)CC(C(=O)O)NC(=O)C2=C(C=C3CN(CCC3=C2Cl)C(=O)C4=CC5=C(C=C4)C=CO5)Cl

>  <PUBCHEM_OPENEYE_ISO_SMILES>  (1) 
CS(=O)(=O)C1=CC=CC(=C1)C[C@@H](C(=O)O)NC(=O)C2=C(C=C3CN(CCC3=C2Cl)C(=O)C4=CC5=C(C=C4)C=CO5)Cl

>  <PUBCHEM_CACTVS_TPSA>  (1) 
142

>  <PUBCHEM_MONOISOTOPIC_WEIGHT>  (1) 
614.0681277

>  <PUBCHEM_TOTAL_CHARGE>  (1) 
0

>  <PUBCHEM_HEAVY_ATOM_COUNT>  (1) 
41

>  <PUBCHEM_ATOM_DEF_STEREO_COUNT>  (1) 
1

>  <PUBCHEM_ATOM_UDEF_STEREO_COUNT>  (1) 
0

>  <PUBCHEM_BOND_DEF_STEREO_COUNT>  (1) 
0

>  <PUBCHEM_BOND_UDEF_STEREO_COUNT>  (1) 
0

>  <PUBCHEM_ISOTOPIC_ATOM_COUNT>  (1) 
0

>  <PUBCHEM_COMPONENT_COUNT>  (1) 
1

>  <PUBCHEM_CACTVS_TAUTO_COUNT>  (1) 
-1

>  <PUBCHEM_COORDINATE_TYPE>  (1) 
1
5
255

>  <PUBCHEM_BONDANNOTATIONS>  (1) 
23  12  5
15  17  8
15  18  8
17  19  8
18  20  8
19  22  8
20  22  8
24  28  8
24  29  8
27  30  8
27  35  8
28  31  8
29  36  8
30  33  8
31  34  8
33  37  8
34  36  8
34  39  8
35  38  8
37  38  8
39  40  8
6  31  8
6  40  8

$$$$
