515964
     RDKit          2D

 25 28  0  0  0  0  0  0  0  0999 V2000
    7.4019    1.8180    0.0000 O   0  0  0  0  0  0  0  0  0  0  0  0
    5.2822    2.2743    0.0000 O   0  0  0  0  0  0  0  0  0  0  0  0
    2.2495   -0.1180    0.0000 O   0  0  0  0  0  0  0  0  0  0  0  0
    6.7606    0.1614    0.0000 N   0  0  0  0  0  0  0  0  0  0  0  0
    2.6067   -1.8128    0.0000 N   0  0  0  0  0  0  0  0  0  0  0  0
    7.6267   -0.3386    0.0000 C   0  0  0  0  0  0  0  0  0  0  0  0
    5.8528   -0.2437    0.0000 C   0  0  0  0  0  0  0  0  0  0  0  0
    5.1850    0.5006    0.0000 C   0  0  0  0  0  0  0  0  0  0  0  0
    8.4927    0.1614    0.0000 C   0  0  0  0  0  0  0  0  0  0  0  0
    6.6576    1.1502    0.0000 C   0  0  0  0  0  0  0  0  0  0  0  0
    5.6858    1.3594    0.0000 C   0  0  0  0  0  0  0  0  0  0  0  0
    5.5422   -1.1942    0.0000 C   0  0  0  0  0  0  0  0  0  0  0  0
    9.3587   -0.3386    0.0000 C   0  0  0  0  0  0  0  0  0  0  0  0
    4.2065    0.2944    0.0000 C   0  0  0  0  0  0  0  0  0  0  0  0
   10.2247    0.1614    0.0000 C   0  0  0  0  0  0  0  0  0  0  0  0
    8.4927    1.1614    0.0000 C   0  0  0  0  0  0  0  0  0  0  0  0
   10.2247    1.1614    0.0000 C   0  0  0  0  0  0  0  0  0  0  0  0
    3.8958   -0.6561    0.0000 C   0  0  0  0  0  0  0  0  0  0  0  0
    4.5637   -1.4004    0.0000 C   0  0  0  0  0  0  0  0  0  0  0  0
    9.3587    1.6614    0.0000 C   0  0  0  0  0  0  0  0  0  0  0  0
   11.1187   -0.3732    0.0000 C   0  0  0  0  0  0  0  0  0  0  0  0
   11.1187    1.6961    0.0000 C   0  0  0  0  0  0  0  0  0  0  0  0
    2.9173   -0.8623    0.0000 C   0  0  0  0  0  0  0  0  0  0  0  0
   12.0248    0.1406    0.0000 C   0  0  0  0  0  0  0  0  0  0  0  0
   12.0248    1.1823    0.0000 C   0  0  0  0  0  0  0  0  0  0  0  0
  1 10  2  0
  2 11  2  0
  3 23  2  0
  4  6  1  0
  4  7  1  0
  4 10  1  0
  5 23  1  0
  6  9  1  0
  7  8  2  0
  7 12  1  0
  8 11  1  0
  8 14  1  0
  9 13  2  0
  9 16  1  0
 10 11  1  0
 12 19  2  0
 13 15  1  0
 14 18  2  0
 15 17  2  0
 15 21  1  0
 16 20  2  0
 17 20  1  0
 17 22  1  0
 18 19  1  0
 18 23  1  0
 21 24  2  0
 22 25  2  0
 24 25  1  0
M  END
>  <PUBCHEM_COMPOUND_CID>  (1) 
515964

>  <PUBCHEM_COMPOUND_CANONICALIZED>  (1) 
1

>  <PUBCHEM_CACTVS_COMPLEXITY>  (1) 
575

>  <PUBCHEM_CACTVS_HBOND_ACCEPTOR>  (1) 
3

>  <PUBCHEM_CACTVS_HBOND_DONOR>  (1) 
1

>  <PUBCHEM_CACTVS_ROTATABLE_BOND>  (1) 
3

>  <PUBCHEM_CACTVS_SUBSKEYS>  (1) 
AAADccB7MAAAAAAAAAAAAAAAAAAAAWAAAAAwYMAAAAAAAFjBVAAAHgAQAAAADAzBmAQwwMNAAACIAqVSUACCAAAlAgAIiAGIZMgIIDrAlbGEIYhghgDIyccci8C+yAACAAASAACQAAQAACQAAAAAAAAAAA==

>  <PUBCHEM_IUPAC_OPENEYE_NAME>  (1) 
1-(2-naphthylmethyl)-2,3-dioxo-indoline-5-carboxamide

>  <PUBCHEM_IUPAC_CAS_NAME>  (1) 
1-(2-naphthalenylmethyl)-2,3-dioxo-5-indolecarboxamide

>  <PUBCHEM_IUPAC_NAME_MARKUP>  (1) 
1-(naphthalen-2-ylmethyl)-2,3-dioxoindole-5-carboxamide

>  <PUBCHEM_IUPAC_NAME>  (1) 
1-(naphthalen-2-ylmethyl)-2,3-dioxoindole-5-carboxamide

>  <PUBCHEM_IUPAC_SYSTEMATIC_NAME>  (1) 
1-(naphthalen-2-ylmethyl)-2,3-bis(oxidanylidene)indole-5-carboxamide

>  <PUBCHEM_IUPAC_TRADITIONAL_NAME>  (1) 
2,3-diketo-1-(2-naphthylmethyl)indoline-5-carboxamide

>  <PUBCHEM_IUPAC_INCHI>  (1) 
InChI=1S/C20H14N2O3/c21-19(24)15-7-8-17-16(10-15)18(23)20(25)22(17)11-12-5-6-13-3-1-2-4-14(13)9-12/h1-10H,11H2,(H2,21,24)

>  <PUBCHEM_IUPAC_INCHIKEY>  (1) 
NTNYHMJYSGPGCQ-UHFFFAOYSA-N

>  <PUBCHEM_XLOGP3_AA>  (1) 
2.5

>  <PUBCHEM_EXACT_MASS>  (1) 
330.10044231

>  <PUBCHEM_MOLECULAR_FORMULA>  (1) 
C20H14N2O3

>  <PUBCHEM_MOLECULAR_WEIGHT>  (1) 
330.3

>  <PUBCHEM_OPENEYE_CAN_SMILES>  (1) 
C1=CC=C2C=C(C=CC2=C1)CN3C4=C(C=C(C=C4)C(=O)N)C(=O)C3=O

>  <PUBCHEM_OPENEYE_ISO_SMILES>  (1) 
C1=CC=C2C=C(C=CC2=C1)CN3C4=C(C=C(C=C4)C(=O)N)C(=O)C3=O

>  <PUBCHEM_CACTVS_TPSA>  (1) 
80.5

>  <PUBCHEM_MONOISOTOPIC_WEIGHT>  (1) 
330.10044231

>  <PUBCHEM_TOTAL_CHARGE>  (1) 
0

>  <PUBCHEM_HEAVY_ATOM_COUNT>  (1) 
25

>  <PUBCHEM_ATOM_DEF_STEREO_COUNT>  (1) 
0

>  <PUBCHEM_ATOM_UDEF_STEREO_COUNT>  (1) 
0

>  <PUBCHEM_BOND_DEF_STEREO_COUNT>  (1) 
0

>  <PUBCHEM_BOND_UDEF_STEREO_COUNT>  (1) 
0

>  <PUBCHEM_ISOTOPIC_ATOM_COUNT>  (1) 
0

>  <PUBCHEM_COMPONENT_COUNT>  (1) 
1

>  <PUBCHEM_CACTVS_TAUTO_COUNT>  (1) 
-1

>  <PUBCHEM_COORDINATE_TYPE>  (1) 
1
5
255

>  <PUBCHEM_BONDANNOTATIONS>  (1) 
12  19  8
13  15  8
14  18  8
15  17  8
15  21  8
16  20  8
17  20  8
17  22  8
18  19  8
21  24  8
22  25  8
24  25  8
7  12  8
7  8  8
8  14  8
9  13  8
9  16  8

$$$$
