5284360
     RDKit          2D

 34 34  0  0  0  0  0  0  0  0999 V2000
   10.5390    7.8005    0.0000 S   0  0  0  0  0  0  0  0  0  0  0  0
    3.1350    6.3100    0.0000 O   0  0  0  0  0  0  0  0  0  0  0  0
    4.0010   11.8100    0.0000 O   0  0  0  0  0  0  0  0  0  0  0  0
    4.8671   10.3100    0.0000 O   0  0  0  0  0  0  0  0  0  0  0  0
    4.0010   13.8100    0.0000 O   0  0  0  0  0  0  0  0  0  0  0  0
    1.4030    6.3100    0.0000 O   0  0  0  0  0  0  0  0  0  0  0  0
   11.4050    8.3005    0.0000 O   0  0  0  0  0  0  0  0  0  0  0  0
   10.0390    8.6665    0.0000 O   0  0  0  0  0  0  0  0  0  0  0  0
   11.0390    6.9344    0.0000 O   0  0  0  0  0  0  0  0  0  0  0  0
    5.7331   13.8100    0.0000 N   0  0  0  0  0  0  0  0  0  0  0  0
    2.2690    1.8100    0.0000 N   0  0  0  0  0  0  0  0  0  0  0  0
    1.4030    0.3100    0.0000 N   0  0  0  0  0  0  0  0  0  0  0  0
    0.5369    1.8100    0.0000 N   0  0  0  0  0  0  0  0  0  0  0  0
    3.1350    9.3100    0.0000 C   0  0  0  0  0  0  0  0  0  0  0  0
    3.1350   10.3100    0.0000 C   0  0  0  0  0  0  0  0  0  0  0  0
    2.2690    8.8100    0.0000 C   0  0  0  0  0  0  0  0  0  0  0  0
    4.0010    8.8100    0.0000 C   0  0  0  0  0  0  0  0  0  0  0  0
    3.1350    7.3100    0.0000 C   0  0  0  0  0  0  0  0  0  0  0  0
    2.2690    7.8100    0.0000 C   0  0  0  0  0  0  0  0  0  0  0  0
    4.0010    7.8100    0.0000 C   0  0  0  0  0  0  0  0  0  0  0  0
    4.0010   10.8100    0.0000 C   0  0  0  0  0  0  0  0  0  0  0  0
    4.8671   12.3100    0.0000 C   0  0  0  0  0  0  0  0  0  0  0  0
    2.2690    4.8100    0.0000 C   0  0  0  0  0  0  0  0  0  0  0  0
    4.8671   13.3100    0.0000 C   0  0  0  0  0  0  0  0  0  0  0  0
    2.2690    5.8100    0.0000 C   0  0  0  0  0  0  0  0  0  0  0  0
    3.1350    4.3100    0.0000 C   0  0  0  0  0  0  0  0  0  0  0  0
    1.4030    4.3100    0.0000 C   0  0  0  0  0  0  0  0  0  0  0  0
    2.2690    2.8100    0.0000 C   0  0  0  0  0  0  0  0  0  0  0  0
    3.1350    3.3100    0.0000 C   0  0  0  0  0  0  0  0  0  0  0  0
    1.4030    3.3100    0.0000 C   0  0  0  0  0  0  0  0  0  0  0  0
    5.7331   14.8100    0.0000 C   0  0  0  0  0  0  0  0  0  0  0  0
    6.5991   13.3100    0.0000 C   0  0  0  0  0  0  0  0  0  0  0  0
    1.4030    1.3100    0.0000 C   0  0  0  0  0  0  0  0  0  0  0  0
    9.6730    7.3005    0.0000 C   0  0  0  0  0  0  0  0  0  0  0  0
  1  7  1  0
  1  8  2  0
  1  9  2  0
  1 34  1  0
  2 18  1  0
  2 25  1  0
  3 21  1  0
  3 22  1  0
  4 21  2  0
  5 24  2  0
  6 25  2  0
 10 24  1  0
 10 31  1  0
 10 32  1  0
 11 28  1  0
 11 33  2  0
 12 33  1  0
 13 33  1  0
 14 15  1  0
 14 16  2  0
 14 17  1  0
 15 21  1  0
 16 19  1  0
 17 20  2  0
 18 19  2  0
 18 20  1  0
 22 24  1  0
 23 25  1  0
 23 26  2  0
 23 27  1  0
 26 29  1  0
 27 30  2  0
 28 29  2  0
 28 30  1  0
M  END
>  <PUBCHEM_COMPOUND_CID>  (1) 
5284360

>  <PUBCHEM_COMPOUND_CANONICALIZED>  (1) 
1

>  <PUBCHEM_CACTVS_COMPLEXITY>  (1) 
695

>  <PUBCHEM_CACTVS_HBOND_ACCEPTOR>  (1) 
9

>  <PUBCHEM_CACTVS_HBOND_DONOR>  (1) 
3

>  <PUBCHEM_CACTVS_ROTATABLE_BOND>  (1) 
9

>  <PUBCHEM_CACTVS_SUBSKEYS>  (1) 
AAADceB7vABAAAAAAAAAAAAAAAAAAAAAAAAwYAAAAAAAAAABQAAAHgQQCAAADAyhmAazzoNABIKoAiXSfHKCCAEkIgAIiAFObMgOJjKEtZ+DOyDkwhEY6YeY2aGeKAAAAAAAAABQAAAAAAAAAAAAAAAAAA==

>  <PUBCHEM_IUPAC_OPENEYE_NAME>  (1) 
[4-[2-[2-(dimethylamino)-2-oxo-ethoxy]-2-oxo-ethyl]phenyl] 4-guanidinobenzoate;methanesulfonic acid

>  <PUBCHEM_IUPAC_CAS_NAME>  (1) 
4-(diaminomethylideneamino)benzoic acid [4-[2-[2-(dimethylamino)-2-oxoethoxy]-2-oxoethyl]phenyl] ester;methanesulfonic acid

>  <PUBCHEM_IUPAC_NAME_MARKUP>  (1) 
[4-[2-[2-(dimethylamino)-2-oxoethoxy]-2-oxoethyl]phenyl] 4-(diaminomethylideneamino)benzoate;methanesulfonic acid

>  <PUBCHEM_IUPAC_NAME>  (1) 
[4-[2-[2-(dimethylamino)-2-oxoethoxy]-2-oxoethyl]phenyl] 4-(diaminomethylideneamino)benzoate;methanesulfonic acid

>  <PUBCHEM_IUPAC_SYSTEMATIC_NAME>  (1) 
[4-[2-[2-(dimethylamino)-2-oxidanylidene-ethoxy]-2-oxidanylidene-ethyl]phenyl] 4-[bis(azanyl)methylideneamino]benzoate;methanesulfonic acid

>  <PUBCHEM_IUPAC_TRADITIONAL_NAME>  (1) 
4-guanidinobenzoic acid [4-[2-[2-(dimethylamino)-2-keto-ethoxy]-2-keto-ethyl]phenyl] ester;mesylic acid

>  <PUBCHEM_IUPAC_INCHI>  (1) 
InChI=1S/C20H22N4O5.CH4O3S/c1-24(2)17(25)12-28-18(26)11-13-3-9-16(10-4-13)29-19(27)14-5-7-15(8-6-14)23-20(21)22;1-5(2,3)4/h3-10H,11-12H2,1-2H3,(H4,21,22,23);1H3,(H,2,3,4)

>  <PUBCHEM_IUPAC_INCHIKEY>  (1) 
FSEKIHNIDBATFG-UHFFFAOYSA-N

>  <PUBCHEM_EXACT_MASS>  (1) 
494.14713497

>  <PUBCHEM_MOLECULAR_FORMULA>  (1) 
C21H26N4O8S

>  <PUBCHEM_MOLECULAR_WEIGHT>  (1) 
494.5

>  <PUBCHEM_OPENEYE_CAN_SMILES>  (1) 
CN(C)C(=O)COC(=O)CC1=CC=C(C=C1)OC(=O)C2=CC=C(C=C2)N=C(N)N.CS(=O)(=O)O

>  <PUBCHEM_OPENEYE_ISO_SMILES>  (1) 
CN(C)C(=O)COC(=O)CC1=CC=C(C=C1)OC(=O)C2=CC=C(C=C2)N=C(N)N.CS(=O)(=O)O

>  <PUBCHEM_CACTVS_TPSA>  (1) 
200

>  <PUBCHEM_MONOISOTOPIC_WEIGHT>  (1) 
494.14713497

>  <PUBCHEM_TOTAL_CHARGE>  (1) 
0

>  <PUBCHEM_HEAVY_ATOM_COUNT>  (1) 
34

>  <PUBCHEM_ATOM_DEF_STEREO_COUNT>  (1) 
0

>  <PUBCHEM_ATOM_UDEF_STEREO_COUNT>  (1) 
0

>  <PUBCHEM_BOND_DEF_STEREO_COUNT>  (1) 
0

>  <PUBCHEM_BOND_UDEF_STEREO_COUNT>  (1) 
0

>  <PUBCHEM_ISOTOPIC_ATOM_COUNT>  (1) 
0

>  <PUBCHEM_COMPONENT_COUNT>  (1) 
2

>  <PUBCHEM_CACTVS_TAUTO_COUNT>  (1) 
-1

>  <PUBCHEM_COORDINATE_TYPE>  (1) 
1
5
255

>  <PUBCHEM_BONDANNOTATIONS>  (1) 
14  16  8
14  17  8
16  19  8
17  20  8
18  19  8
18  20  8
23  26  8
23  27  8
26  29  8
27  30  8
28  29  8
28  30  8

$$$$
