9409
     RDKit          2D

 62 63  0  0  0  0  0  0  0  0999 V2000
    5.4641    4.2892    0.0000 S   0  0  0  0  0  0  0  0  0  0  0  0
   20.3089   -4.2892    0.0000 S   0  0  0  0  0  0  0  0  0  0  0  0
    3.7320    1.2892    0.0000 S   0  0  0  0  0  0  0  0  0  0  0  0
   22.0409   -1.2892    0.0000 S   0  0  0  0  0  0  0  0  0  0  0  0
   21.1749   -5.7892    0.0000 Na  0  0  0  0  0 15  0  0  0  0  0  0
    4.5981    5.7892    0.0000 Na  0  0  0  0  0 15  0  0  0  0  0  0
    2.0000    1.2892    0.0000 Na  0  0  0  0  0 15  0  0  0  0  0  0
   23.7730   -1.2892    0.0000 Na  0  0  0  0  0 15  0  0  0  0  0  0
    7.2125    0.2546    0.0000 O   0  0  0  0  0  0  0  0  0  0  0  0
   18.5605   -0.2546    0.0000 O   0  0  0  0  0  0  0  0  0  0  0  0
    5.4641    5.2892    0.0000 O   0  0  0  0  0  0  0  0  0  0  0  0
   20.3089   -5.2892    0.0000 O   0  0  0  0  0  0  0  0  0  0  0  0
    4.4641    4.2892    0.0000 O   0  0  0  0  0  0  0  0  0  0  0  0
    6.4641    4.2892    0.0000 O   0  0  0  0  0  0  0  0  0  0  0  0
   21.3089   -4.2892    0.0000 O   0  0  0  0  0  0  0  0  0  0  0  0
   19.3089   -4.2892    0.0000 O   0  0  0  0  0  0  0  0  0  0  0  0
    2.8660    0.7892    0.0000 O   0  0  0  0  0  0  0  0  0  0  0  0
   22.9070   -0.7892    0.0000 O   0  0  0  0  0  0  0  0  0  0  0  0
    3.2320    2.1552    0.0000 O   0  0  0  0  0  0  0  0  0  0  0  0
    4.2320    0.4231    0.0000 O   0  0  0  0  0  0  0  0  0  0  0  0
   22.5409   -2.1552    0.0000 O   0  0  0  0  0  0  0  0  0  0  0  0
   21.5409   -0.4231    0.0000 O   0  0  0  0  0  0  0  0  0  0  0  0
    5.4641    0.2892    0.0000 N   0  0  0  0  0  0  0  0  0  0  0  0
   20.3089   -0.2892    0.0000 N   0  0  0  0  0  0  0  0  0  0  0  0
    8.9942    1.2650    0.0000 N   0  0  0  0  0  0  0  0  0  0  0  0
   16.7788   -1.2650    0.0000 N   0  0  0  0  0  0  0  0  0  0  0  0
    9.8622    1.7617    0.0000 N   0  0  0  0  0  0  0  0  0  0  0  0
   15.9108   -1.7617    0.0000 N   0  0  0  0  0  0  0  0  0  0  0  0
    6.3301    1.7892    0.0000 C   0  0  0  0  0  0  0  0  0  0  0  0
   19.4429   -1.7892    0.0000 C   0  0  0  0  0  0  0  0  0  0  0  0
    6.3301    2.7892    0.0000 C   0  0  0  0  0  0  0  0  0  0  0  0
   19.4429   -2.7892    0.0000 C   0  0  0  0  0  0  0  0  0  0  0  0
    5.4641    3.2892    0.0000 C   0  0  0  0  0  0  0  0  0  0  0  0
   20.3089   -3.2892    0.0000 C   0  0  0  0  0  0  0  0  0  0  0  0
    5.4641    1.2892    0.0000 C   0  0  0  0  0  0  0  0  0  0  0  0
   20.3089   -1.2892    0.0000 C   0  0  0  0  0  0  0  0  0  0  0  0
    4.5981    1.7892    0.0000 C   0  0  0  0  0  0  0  0  0  0  0  0
   21.1749   -1.7892    0.0000 C   0  0  0  0  0  0  0  0  0  0  0  0
    4.5981    2.7892    0.0000 C   0  0  0  0  0  0  0  0  0  0  0  0
   21.1749   -2.7892    0.0000 C   0  0  0  0  0  0  0  0  0  0  0  0
    7.2241    1.2545    0.0000 C   0  0  0  0  0  0  0  0  0  0  0  0
   18.5489   -1.2545    0.0000 C   0  0  0  0  0  0  0  0  0  0  0  0
    7.2241    3.3238    0.0000 C   0  0  0  0  0  0  0  0  0  0  0  0
   18.5489   -3.3238    0.0000 C   0  0  0  0  0  0  0  0  0  0  0  0
    8.1301    1.7684    0.0000 C   0  0  0  0  0  0  0  0  0  0  0  0
   17.6429   -1.7684    0.0000 C   0  0  0  0  0  0  0  0  0  0  0  0
    8.1301    2.8100    0.0000 C   0  0  0  0  0  0  0  0  0  0  0  0
   17.6429   -2.8100    0.0000 C   0  0  0  0  0  0  0  0  0  0  0  0
   12.4544    0.2517    0.0000 C   0  0  0  0  0  0  0  0  0  0  0  0
   13.3185   -0.2517    0.0000 C   0  0  0  0  0  0  0  0  0  0  0  0
   11.5942    1.7550    0.0000 C   0  0  0  0  0  0  0  0  0  0  0  0
   14.1788   -1.7550    0.0000 C   0  0  0  0  0  0  0  0  0  0  0  0
   10.7263    1.2583    0.0000 C   0  0  0  0  0  0  0  0  0  0  0  0
   15.0467   -1.2583    0.0000 C   0  0  0  0  0  0  0  0  0  0  0  0
   12.4583    1.2517    0.0000 C   0  0  0  0  0  0  0  0  0  0  0  0
   13.3147   -1.2517    0.0000 C   0  0  0  0  0  0  0  0  0  0  0  0
   11.5865   -0.2450    0.0000 C   0  0  0  0  0  0  0  0  0  0  0  0
   14.1865    0.2450    0.0000 C   0  0  0  0  0  0  0  0  0  0  0  0
   10.7224    0.2583    0.0000 C   0  0  0  0  0  0  0  0  0  0  0  0
   15.0506   -0.2583    0.0000 C   0  0  0  0  0  0  0  0  0  0  0  0
   11.5981    2.7550    0.0000 C   0  0  0  0  0  0  0  0  0  0  0  0
   14.1749   -2.7550    0.0000 C   0  0  0  0  0  0  0  0  0  0  0  0
  1 11  1  0
  1 13  2  0
  1 14  2  0
  1 33  1  0
  2 12  1  0
  2 15  2  0
  2 16  2  0
  2 34  1  0
  3 17  1  0
  3 19  2  0
  3 20  2  0
  3 37  1  0
  4 18  1  0
  4 21  2  0
  4 22  2  0
  4 38  1  0
  9 41  1  0
 10 42  1  0
 23 35  1  0
 24 36  1  0
 25 27  2  0
 25 45  1  0
 26 28  2  0
 26 46  1  0
 27 53  1  0
 28 54  1  0
 29 31  1  0
 29 35  2  0
 29 41  1  0
 30 32  1  0
 30 36  2  0
 30 42  1  0
 31 33  2  0
 31 43  1  0
 32 34  2  0
 32 44  1  0
 33 39  1  0
 34 40  1  0
 35 37  1  0
 36 38  1  0
 37 39  2  0
 38 40  2  0
 41 45  2  0
 42 46  2  0
 43 47  2  0
 44 48  2  0
 45 47  1  0
 46 48  1  0
 49 50  1  0
 49 55  2  0
 49 57  1  0
 50 56  2  0
 50 58  1  0
 51 53  2  0
 51 55  1  0
 51 61  1  0
 52 54  2  0
 52 56  1  0
 52 62  1  0
 53 59  1  0
 54 60  1  0
 57 59  2  0
 58 60  2  0
M  CHG  8   5   1   6   1   7   1   8   1  11  -1  12  -1  17  -1  18  -1
M  END
>  <PUBCHEM_COMPOUND_CID>  (1) 
9409

>  <PUBCHEM_COMPOUND_CANONICALIZED>  (1) 
1

>  <PUBCHEM_CACTVS_COMPLEXITY>  (1) 
1790

>  <PUBCHEM_CACTVS_HBOND_ACCEPTOR>  (1) 
20

>  <PUBCHEM_CACTVS_HBOND_DONOR>  (1) 
4

>  <PUBCHEM_CACTVS_ROTATABLE_BOND>  (1) 
5

>  <PUBCHEM_CACTVS_SUBSKEYS>  (1) 
AAADceB/vDBwAAAAAAAAAAAAAAAAAAAAAAAwYMGDAAAAAADBVAAAHgQYCAAADAyB2AAyx8BAAgKCAiRCQHDCAEAgIgAIiBwFbIgKJiKSkZOAcABmwBkI2AeQwPAOmAQDwEAeEQAwCAeAgDwiAAAAAAAAAA==

>  <PUBCHEM_IUPAC_OPENEYE_NAME>  (1) 
tetrasodium;4-amino-6-[4-[4-[(8-amino-1-hydroxy-5,7-disulfonato-2-naphthyl)azo]-3-methyl-phenyl]-2-methyl-phenyl]azo-5-hydroxy-naphthalene-1,3-disulfonate

>  <PUBCHEM_IUPAC_CAS_NAME>  (1) 
tetrasodium;4-amino-6-[4-[4-[(8-amino-1-hydroxy-5,7-disulfonato-2-naphthalenyl)azo]-3-methylphenyl]-2-methylphenyl]azo-5-hydroxynaphthalene-1,3-disulfonate

>  <PUBCHEM_IUPAC_NAME_MARKUP>  (1) 
tetrasodium;4-amino-6-[[4-[4-[(8-amino-1-hydroxy-5,7-disulfonatonaphthalen-2-yl)diazenyl]-3-methylphenyl]-2-methylphenyl]diazenyl]-5-hydroxynaphthalene-1,3-disulfonate

>  <PUBCHEM_IUPAC_NAME>  (1) 
tetrasodium;4-amino-6-[[4-[4-[(8-amino-1-hydroxy-5,7-disulfonatonaphthalen-2-yl)diazenyl]-3-methylphenyl]-2-methylphenyl]diazenyl]-5-hydroxynaphthalene-1,3-disulfonate

>  <PUBCHEM_IUPAC_SYSTEMATIC_NAME>  (1) 
tetrasodium;4-azanyl-6-[[4-[4-[(8-azanyl-1-oxidanyl-5,7-disulfonato-naphthalen-2-yl)diazenyl]-3-methyl-phenyl]-2-methyl-phenyl]diazenyl]-5-oxidanyl-naphthalene-1,3-disulfonate

>  <PUBCHEM_IUPAC_TRADITIONAL_NAME>  (1) 
tetrasodium;4-amino-6-[4-[4-[(8-amino-1-hydroxy-5,7-disulfonato-2-naphthyl)azo]-3-methyl-phenyl]-2-methyl-phenyl]azo-5-hydroxy-naphthalene-1,3-disulfonate

>  <PUBCHEM_IUPAC_INCHI>  (1) 
InChI=1S/C34H28N6O14S4.4Na/c1-15-11-17(3-7-21(15)37-39-23-9-5-19-25(55(43,44)45)13-27(57(49,50)51)31(35)29(19)33(23)41)18-4-8-22(16(2)12-18)38-40-24-10-6-20-26(56(46,47)48)14-28(58(52,53)54)32(36)30(20)34(24)42;;;;/h3-14,41-42H,35-36H2,1-2H3,(H,43,44,45)(H,46,47,48)(H,49,50,51)(H,52,53,54);;;;/q;4*+1/p-4

>  <PUBCHEM_IUPAC_INCHIKEY>  (1) 
ATNOAWAQFYGAOY-UHFFFAOYSA-J

>  <PUBCHEM_EXACT_MASS>  (1) 
959.9824113

>  <PUBCHEM_MOLECULAR_FORMULA>  (1) 
C34H24N6Na4O14S4

>  <PUBCHEM_MOLECULAR_WEIGHT>  (1) 
960.8

>  <PUBCHEM_OPENEYE_CAN_SMILES>  (1) 
CC1=C(C=CC(=C1)C2=CC(=C(C=C2)N=NC3=C(C4=C(C=C3)C(=CC(=C4N)S(=O)(=O)[O-])S(=O)(=O)[O-])O)C)N=NC5=C(C6=C(C=C5)C(=CC(=C6N)S(=O)(=O)[O-])S(=O)(=O)[O-])O.[Na+].[Na+].[Na+].[Na+]

>  <PUBCHEM_OPENEYE_ISO_SMILES>  (1) 
CC1=C(C=CC(=C1)C2=CC(=C(C=C2)N=NC3=C(C4=C(C=C3)C(=CC(=C4N)S(=O)(=O)[O-])S(=O)(=O)[O-])O)C)N=NC5=C(C6=C(C=C5)C(=CC(=C6N)S(=O)(=O)[O-])S(=O)(=O)[O-])O.[Na+].[Na+].[Na+].[Na+]

>  <PUBCHEM_CACTVS_TPSA>  (1) 
404

>  <PUBCHEM_MONOISOTOPIC_WEIGHT>  (1) 
959.9824113

>  <PUBCHEM_TOTAL_CHARGE>  (1) 
0

>  <PUBCHEM_HEAVY_ATOM_COUNT>  (1) 
62

>  <PUBCHEM_ATOM_DEF_STEREO_COUNT>  (1) 
0

>  <PUBCHEM_ATOM_UDEF_STEREO_COUNT>  (1) 
0

>  <PUBCHEM_BOND_DEF_STEREO_COUNT>  (1) 
0

>  <PUBCHEM_BOND_UDEF_STEREO_COUNT>  (1) 
0

>  <PUBCHEM_ISOTOPIC_ATOM_COUNT>  (1) 
0

>  <PUBCHEM_COMPONENT_COUNT>  (1) 
5

>  <PUBCHEM_CACTVS_TAUTO_COUNT>  (1) 
-1

>  <PUBCHEM_COORDINATE_TYPE>  (1) 
1
5
255

>  <PUBCHEM_BONDANNOTATIONS>  (1) 
29  31  8
29  35  8
29  41  8
30  32  8
30  36  8
30  42  8
31  33  8
31  43  8
32  34  8
32  44  8
33  39  8
34  40  8
35  37  8
36  38  8
37  39  8
38  40  8
41  45  8
42  46  8
43  47  8
44  48  8
45  47  8
46  48  8
49  55  8
49  57  8
50  56  8
50  58  8
51  53  8
51  55  8
52  54  8
52  56  8
53  59  8
54  60  8
57  59  8
58  60  8

$$$$
