154699455
     RDKit          2D

 36 37  0  0  1  0  0  0  0  0999 V2000
    2.8380    5.2585    0.0000 O   0  0  0  0  0  0  0  0  0  0  0  0
    7.1962    2.4798    0.0000 O   0  0  0  0  0  0  0  0  0  0  0  0
    6.3301    4.9798    0.0000 O   0  0  0  0  0  0  0  0  0  0  0  0
    6.3301   -1.0202    0.0000 O   0  0  0  0  0  0  0  0  0  0  0  0
    3.7320   -3.5202    0.0000 O   0  0  0  0  0  0  0  0  0  0  0  0
    2.8660   -2.0202    0.0000 O   0  0  0  0  0  0  0  0  0  0  0  0
    4.0981    6.5186    0.0000 N   0  0  0  0  0  0  0  0  0  0  0  0
    5.4641    2.4798    0.0000 N   0  0  0  0  0  0  0  0  0  0  0  0
    5.4641    0.4798    0.0000 N   0  0  0  0  0  0  0  0  0  0  0  0
    4.5981   -2.0202    0.0000 N   0  0  0  0  0  0  0  0  0  0  0  0
    4.5981    4.9798    0.0000 C   0  0  0  0  0  0  0  0  0  0  0  0
    4.5981    3.9798    0.0000 C   0  0  0  0  0  0  0  0  0  0  0  0
    5.4071    5.5676    0.0000 C   0  0  0  0  0  0  0  0  0  0  0  0
    5.4641    3.4798    0.0000 C   0  0  0  0  0  0  0  0  0  0  0  0
    5.0981    6.5186    0.0000 C   0  0  0  0  0  0  0  0  0  0  0  0
    3.7891    5.5676    0.0000 C   0  0  0  0  0  0  0  0  0  0  0  0
    6.3301    0.9798    0.0000 C   0  0  0  0  0  0  0  0  0  0  0  0
    7.1962    0.4798    0.0000 C   0  0  0  0  0  0  0  0  0  0  0  0
    8.0622    0.9798    0.0000 C   0  0  0  0  0  0  0  0  0  0  0  0
    6.3301    1.9798    0.0000 C   0  0  0  0  0  0  0  0  0  0  0  0
    4.5981   -1.0202    0.0000 C   0  0  0  0  0  0  0  0  0  0  0  0
    3.7320   -0.5202    0.0000 C   0  0  0  0  0  0  0  0  0  0  0  0
    6.3301    3.9798    0.0000 C   0  0  0  0  0  0  0  0  0  0  0  0
    5.4641   -0.5202    0.0000 C   0  0  0  0  0  0  0  0  0  0  0  0
    8.9282    0.4798    0.0000 C   0  0  0  0  0  0  0  0  0  0  0  0
    8.0622    1.9798    0.0000 C   0  0  0  0  0  0  0  0  0  0  0  0
    3.7320    0.4798    0.0000 C   0  0  0  0  0  0  0  0  0  0  0  0
    2.8660   -1.0202    0.0000 C   0  0  0  0  0  0  0  0  0  0  0  0
    3.7320   -2.5202    0.0000 C   0  0  0  0  0  0  0  0  0  0  0  0
    2.8660   -4.0202    0.0000 C   0  0  0  0  0  0  0  0  0  0  0  0
    2.8660   -5.0202    0.0000 C   0  0  0  0  0  0  0  0  0  0  0  0
    3.7320   -5.5202    0.0000 C   0  0  0  0  0  0  0  0  0  0  0  0
    2.0000   -5.5202    0.0000 C   0  0  0  0  0  0  0  0  0  0  0  0
    3.7320   -6.5202    0.0000 C   0  0  0  0  0  0  0  0  0  0  0  0
    2.0000   -6.5202    0.0000 C   0  0  0  0  0  0  0  0  0  0  0  0
    2.8660   -7.0202    0.0000 C   0  0  0  0  0  0  0  0  0  0  0  0
  1 16  2  0
  2 20  2  0
  3 23  2  0
  4 24  2  0
  5 29  1  0
  5 30  1  0
  6 29  2  0
  7 15  1  0
  7 16  1  0
 14  8  1  0
  8 20  1  0
 17  9  1  0
  9 24  1  0
 21 10  1  1
 10 29  1  0
 11 12  1  1
 11 13  1  0
 11 16  1  0
 14 12  1  1
 13 15  1  0
 14 23  1  0
 17 18  1  6
 17 20  1  0
 18 19  1  0
 19 25  1  0
 19 26  1  0
 21 22  1  0
 21 24  1  0
 22 27  1  0
 22 28  1  0
 30 31  1  0
 31 32  2  0
 31 33  1  0
 32 34  1  0
 33 35  2  0
 34 36  2  0
 35 36  1  0
M  END
>  <PUBCHEM_COMPOUND_CID>  (1) 
154699455

>  <PUBCHEM_COMPOUND_CANONICALIZED>  (1) 
1

>  <PUBCHEM_CACTVS_COMPLEXITY>  (1) 
766

>  <PUBCHEM_CACTVS_HBOND_ACCEPTOR>  (1) 
6

>  <PUBCHEM_CACTVS_HBOND_DONOR>  (1) 
4

>  <PUBCHEM_CACTVS_ROTATABLE_BOND>  (1) 
14

>  <PUBCHEM_CACTVS_SUBSKEYS>  (1) 
AAADcfB7uAAAAAAAAAAAAAAAAAAAAWAAAAAwAAAAAAAAAAABAAAAHgAQAAAADSjhmAYyCILABACIAilSmAACAAAgAAAIiIGICIkIZjKAsTicMAAk1gGIqAecyyAOAAAAAAAAAAAAAAAAAAAAAAAAAAAAAA==

>  <PUBCHEM_IUPAC_OPENEYE_NAME>  (1) 
benzyl N-[(1S)-1-[[(1S)-1-[[(1S)-1-formyl-2-[(3S)-2-oxopyrrolidin-3-yl]ethyl]carbamoyl]-3-methyl-butyl]carbamoyl]-2-methyl-propyl]carbamate

>  <PUBCHEM_IUPAC_CAS_NAME>  (1) 
N-[(2S)-3-methyl-1-[[(2S)-4-methyl-1-oxo-1-[[(2S)-1-oxo-3-[(3S)-2-oxo-3-pyrrolidinyl]propan-2-yl]amino]pentan-2-yl]amino]-1-oxobutan-2-yl]carbamic acid (phenylmethyl) ester

>  <PUBCHEM_IUPAC_NAME_MARKUP>  (1) 
benzyl <I>N</I>-[(2<I>S</I>)-3-methyl-1-[[(2<I>S</I>)-4-methyl-1-oxo-1-[[(2<I>S</I>)-1-oxo-3-[(3<I>S</I>)-2-oxopyrrolidin-3-yl]propan-2-yl]amino]pentan-2-yl]amino]-1-oxobutan-2-yl]carbamate

>  <PUBCHEM_IUPAC_NAME>  (1) 
benzyl N-[(2S)-3-methyl-1-[[(2S)-4-methyl-1-oxo-1-[[(2S)-1-oxo-3-[(3S)-2-oxopyrrolidin-3-yl]propan-2-yl]amino]pentan-2-yl]amino]-1-oxobutan-2-yl]carbamate

>  <PUBCHEM_IUPAC_SYSTEMATIC_NAME>  (1) 
(phenylmethyl) N-[(2S)-3-methyl-1-[[(2S)-4-methyl-1-oxidanylidene-1-[[(2S)-1-oxidanylidene-3-[(3S)-2-oxidanylidenepyrrolidin-3-yl]propan-2-yl]amino]pentan-2-yl]amino]-1-oxidanylidene-butan-2-yl]carbamate

>  <PUBCHEM_IUPAC_TRADITIONAL_NAME>  (1) 
N-[(1S)-1-[[(1S)-1-[[(1S)-1-formyl-2-[(3S)-2-ketopyrrolidin-3-yl]ethyl]carbamoyl]-3-methyl-butyl]carbamoyl]-2-methyl-propyl]carbamic acid benzyl ester

>  <PUBCHEM_IUPAC_INCHI>  (1) 
InChI=1S/C26H38N4O6/c1-16(2)12-21(24(33)28-20(14-31)13-19-10-11-27-23(19)32)29-25(34)22(17(3)4)30-26(35)36-15-18-8-6-5-7-9-18/h5-9,14,16-17,19-22H,10-13,15H2,1-4H3,(H,27,32)(H,28,33)(H,29,34)(H,30,35)/t19-,20-,21-,22-/m0/s1

>  <PUBCHEM_IUPAC_INCHIKEY>  (1) 
RUHYGYHBVKWREW-CMOCDZPBSA-N

>  <PUBCHEM_XLOGP3_AA>  (1) 
2.6

>  <PUBCHEM_EXACT_MASS>  (1) 
502.27913494

>  <PUBCHEM_MOLECULAR_FORMULA>  (1) 
C26H38N4O6

>  <PUBCHEM_MOLECULAR_WEIGHT>  (1) 
502.6

>  <PUBCHEM_OPENEYE_CAN_SMILES>  (1) 
CC(C)CC(C(=O)NC(CC1CCNC1=O)C=O)NC(=O)C(C(C)C)NC(=O)OCC2=CC=CC=C2

>  <PUBCHEM_OPENEYE_ISO_SMILES>  (1) 
CC(C)C[C@@H](C(=O)N[C@@H](C[C@@H]1CCNC1=O)C=O)NC(=O)[C@H](C(C)C)NC(=O)OCC2=CC=CC=C2

>  <PUBCHEM_CACTVS_TPSA>  (1) 
143

>  <PUBCHEM_MONOISOTOPIC_WEIGHT>  (1) 
502.27913494

>  <PUBCHEM_TOTAL_CHARGE>  (1) 
0

>  <PUBCHEM_HEAVY_ATOM_COUNT>  (1) 
36

>  <PUBCHEM_ATOM_DEF_STEREO_COUNT>  (1) 
4

>  <PUBCHEM_ATOM_UDEF_STEREO_COUNT>  (1) 
0

>  <PUBCHEM_BOND_DEF_STEREO_COUNT>  (1) 
0

>  <PUBCHEM_BOND_UDEF_STEREO_COUNT>  (1) 
0

>  <PUBCHEM_ISOTOPIC_ATOM_COUNT>  (1) 
0

>  <PUBCHEM_COMPONENT_COUNT>  (1) 
1

>  <PUBCHEM_CACTVS_TAUTO_COUNT>  (1) 
-1

>  <PUBCHEM_COORDINATE_TYPE>  (1) 
1
5
255

>  <PUBCHEM_BONDANNOTATIONS>  (1) 
21  10  5
11  12  5
31  32  8
31  33  8
32  34  8
33  35  8
34  36  8
35  36  8
14  8  5
17  9  6

$$$$
