169409670
     RDKit          2D

 31 34  0  0  1  0  0  0  0  0999 V2000
    4.9344   -6.1744    0.0000 Cl  0  0  0  0  0  0  0  0  0  0  0  0
    4.6254   -1.2234    0.0000 S   0  0  0  0  0  0  0  0  0  0  0  0
    6.3005    4.8644    0.0000 S   0  0  0  0  0  0  0  0  0  0  0  0
    4.5684    0.8644    0.0000 O   0  0  0  0  0  0  0  0  0  0  0  0
    7.3005    4.8644    0.0000 O   0  0  0  0  0  0  0  0  0  0  0  0
    5.3005    4.8644    0.0000 O   0  0  0  0  0  0  0  0  0  0  0  0
    5.9344   -2.1744    0.0000 N   0  0  0  0  0  0  0  0  0  0  0  0
    6.2434   -1.2234    0.0000 N   0  0  0  0  0  0  0  0  0  0  0  0
    6.3005    0.8644    0.0000 N   0  0  0  0  0  0  0  0  0  0  0  0
    6.3005    5.8644    0.0000 N   0  0  0  0  0  0  0  0  0  0  0  0
    4.9344   -2.1744    0.0000 C   0  0  0  0  0  0  0  0  0  0  0  0
    4.9344   -3.1744    0.0000 C   0  0  0  0  0  0  0  0  0  0  0  0
    3.9563   -1.9664    0.0000 C   0  0  0  0  0  0  0  0  0  0  0  0
    5.4344   -0.6356    0.0000 C   0  0  0  0  0  0  0  0  0  0  0  0
    4.0684   -3.6744    0.0000 C   0  0  0  0  0  0  0  0  0  0  0  0
    5.8005   -3.6744    0.0000 C   0  0  0  0  0  0  0  0  0  0  0  0
    3.2872   -2.7097    0.0000 C   0  0  0  0  0  0  0  0  0  0  0  0
    3.6473   -1.0154    0.0000 C   0  0  0  0  0  0  0  0  0  0  0  0
    5.4344    0.3644    0.0000 C   0  0  0  0  0  0  0  0  0  0  0  0
    4.0684   -4.6744    0.0000 C   0  0  0  0  0  0  0  0  0  0  0  0
    5.8005   -4.6744    0.0000 C   0  0  0  0  0  0  0  0  0  0  0  0
    2.3090   -2.5017    0.0000 C   0  0  0  0  0  0  0  0  0  0  0  0
    2.6691   -0.8075    0.0000 C   0  0  0  0  0  0  0  0  0  0  0  0
    4.9344   -5.1744    0.0000 C   0  0  0  0  0  0  0  0  0  0  0  0
    2.0000   -1.5506    0.0000 C   0  0  0  0  0  0  0  0  0  0  0  0
    6.3005    1.8644    0.0000 C   0  0  0  0  0  0  0  0  0  0  0  0
    6.3005    3.8644    0.0000 C   0  0  0  0  0  0  0  0  0  0  0  0
    7.1665    2.3644    0.0000 C   0  0  0  0  0  0  0  0  0  0  0  0
    5.4344    2.3644    0.0000 C   0  0  0  0  0  0  0  0  0  0  0  0
    7.1665    3.3644    0.0000 C   0  0  0  0  0  0  0  0  0  0  0  0
    5.4344    3.3644    0.0000 C   0  0  0  0  0  0  0  0  0  0  0  0
  1 24  1  0
  2 11  1  0
  2 14  1  0
  3  5  2  0
  3  6  2  0
  3 10  1  0
  3 27  1  0
  4 19  2  0
  7  8  1  0
  7 11  1  0
  8 14  2  0
  9 19  1  0
  9 26  1  0
 11 12  1  0
 11 13  1  0
 12 15  2  0
 12 16  1  0
 13 17  2  0
 13 18  1  0
 14 19  1  0
 15 20  1  0
 16 21  2  0
 17 22  1  0
 18 23  2  0
 20 24  2  0
 21 24  1  0
 22 25  2  0
 23 25  1  0
 26 28  2  0
 26 29  1  0
 27 30  2  0
 27 31  1  0
 28 30  1  0
 29 31  2  0
M  END
>  <PUBCHEM_COMPOUND_CID>  (1) 
169409670

>  <PUBCHEM_COMPOUND_CANONICALIZED>  (1) 
1

>  <PUBCHEM_CACTVS_COMPLEXITY>  (1) 
781

>  <PUBCHEM_CACTVS_HBOND_ACCEPTOR>  (1) 
7

>  <PUBCHEM_CACTVS_HBOND_DONOR>  (1) 
3

>  <PUBCHEM_CACTVS_ROTATABLE_BOND>  (1) 
5

>  <PUBCHEM_CACTVS_SUBSKEYS>  (1) 
AAADceB7sABkAAAAAAAAAAAAAAAAAQAAAAAwYMAAAAAAAAABUAAAHgYYQAAADAqB2CAwwYLiAAqoAiVyUHDSABBhBxAYiBgAZogIICLhk5GEIAhgnADoyAcQgMAOBAQAAAAAAAAICAAAAAAAAAAAAAAAAA==

>  <PUBCHEM_IUPAC_OPENEYE_NAME>  (1) 
2-(4-chlorophenyl)-2-phenyl-N-(4-sulfamoylphenyl)-3H-1,3,4-thiadiazole-5-carboxamide

>  <PUBCHEM_IUPAC_CAS_NAME>  (1) 
2-(4-chlorophenyl)-2-phenyl-N-(4-sulfamoylphenyl)-3H-1,3,4-thiadiazole-5-carboxamide

>  <PUBCHEM_IUPAC_NAME_MARKUP>  (1) 
2-(4-chlorophenyl)-2-phenyl-<I>N</I>-(4-sulfamoylphenyl)-3<I>H</I>-1,3,4-thiadiazole-5-carboxamide

>  <PUBCHEM_IUPAC_NAME>  (1) 
2-(4-chlorophenyl)-2-phenyl-N-(4-sulfamoylphenyl)-3H-1,3,4-thiadiazole-5-carboxamide

>  <PUBCHEM_IUPAC_SYSTEMATIC_NAME>  (1) 
2-(4-chlorophenyl)-2-phenyl-N-(4-sulfamoylphenyl)-3H-1,3,4-thiadiazole-5-carboxamide

>  <PUBCHEM_IUPAC_TRADITIONAL_NAME>  (1) 
2-(4-chlorophenyl)-2-phenyl-N-(4-sulfamoylphenyl)-3H-1,3,4-thiadiazole-5-carboxamide

>  <PUBCHEM_IUPAC_INCHI>  (1) 
InChI=1S/C21H17ClN4O3S2/c22-16-8-6-15(7-9-16)21(14-4-2-1-3-5-14)26-25-20(30-21)19(27)24-17-10-12-18(13-11-17)31(23,28)29/h1-13,26H,(H,24,27)(H2,23,28,29)

>  <PUBCHEM_IUPAC_INCHIKEY>  (1) 
BNVCUPBMPHTHKC-UHFFFAOYSA-N

>  <PUBCHEM_XLOGP3_AA>  (1) 
4.4

>  <PUBCHEM_EXACT_MASS>  (1) 
472.0430605

>  <PUBCHEM_MOLECULAR_FORMULA>  (1) 
C21H17ClN4O3S2

>  <PUBCHEM_MOLECULAR_WEIGHT>  (1) 
473.0

>  <PUBCHEM_OPENEYE_CAN_SMILES>  (1) 
C1=CC=C(C=C1)C2(NN=C(S2)C(=O)NC3=CC=C(C=C3)S(=O)(=O)N)C4=CC=C(C=C4)Cl

>  <PUBCHEM_OPENEYE_ISO_SMILES>  (1) 
C1=CC=C(C=C1)C2(NN=C(S2)C(=O)NC3=CC=C(C=C3)S(=O)(=O)N)C4=CC=C(C=C4)Cl

>  <PUBCHEM_CACTVS_TPSA>  (1) 
147

>  <PUBCHEM_MONOISOTOPIC_WEIGHT>  (1) 
472.0430605

>  <PUBCHEM_TOTAL_CHARGE>  (1) 
0

>  <PUBCHEM_HEAVY_ATOM_COUNT>  (1) 
31

>  <PUBCHEM_ATOM_DEF_STEREO_COUNT>  (1) 
0

>  <PUBCHEM_ATOM_UDEF_STEREO_COUNT>  (1) 
1

>  <PUBCHEM_BOND_DEF_STEREO_COUNT>  (1) 
0

>  <PUBCHEM_BOND_UDEF_STEREO_COUNT>  (1) 
0

>  <PUBCHEM_ISOTOPIC_ATOM_COUNT>  (1) 
0

>  <PUBCHEM_COMPONENT_COUNT>  (1) 
1

>  <PUBCHEM_CACTVS_TAUTO_COUNT>  (1) 
-1

>  <PUBCHEM_COORDINATE_TYPE>  (1) 
1
5
255

>  <PUBCHEM_BONDANNOTATIONS>  (1) 
11  13  3
12  15  8
12  16  8
13  17  8
13  18  8
15  20  8
16  21  8
17  22  8
18  23  8
20  24  8
21  24  8
22  25  8
23  25  8
26  28  8
26  29  8
27  30  8
27  31  8
28  30  8
29  31  8

$$$$
