11313
     RDKit          2D

 48 51  0  0  0  0  0  0  0  0999 V2000
    2.8660    1.7154    0.0000 S   0  0  0  0  0  0  0  0  0  0  0  0
   15.8564   -3.7846    0.0000 S   0  0  0  0  0  0  0  0  0  0  0  0
   14.9904   -5.2846    0.0000 Na  0  0  0  0  0 15  0  0  0  0  0  0
    2.0000    0.2154    0.0000 Na  0  0  0  0  0 15  0  0  0  0  0  0
    2.0000    1.2154    0.0000 O   0  0  0  0  0  0  0  0  0  0  0  0
   15.8564   -4.7846    0.0000 O   0  0  0  0  0  0  0  0  0  0  0  0
    3.3660    0.8493    0.0000 O   0  0  0  0  0  0  0  0  0  0  0  0
    2.3660    2.5814    0.0000 O   0  0  0  0  0  0  0  0  0  0  0  0
   14.8564   -3.7846    0.0000 O   0  0  0  0  0  0  0  0  0  0  0  0
   16.8564   -3.7846    0.0000 O   0  0  0  0  0  0  0  0  0  0  0  0
    6.3301    3.7154    0.0000 N   0  0  0  0  0  0  0  0  0  0  0  0
   15.8564    0.2154    0.0000 N   0  0  0  0  0  0  0  0  0  0  0  0
    6.3301    1.7154    0.0000 N   0  0  0  0  0  0  0  0  0  0  0  0
   14.1244   -0.7846    0.0000 N   0  0  0  0  0  0  0  0  0  0  0  0
    7.1962    2.2154    0.0000 N   0  0  0  0  0  0  0  0  0  0  0  0
   13.2583   -1.2846    0.0000 N   0  0  0  0  0  0  0  0  0  0  0  0
    3.7320    3.2154    0.0000 C   0  0  0  0  0  0  0  0  0  0  0  0
   16.7224   -2.2846    0.0000 C   0  0  0  0  0  0  0  0  0  0  0  0
    4.5981    3.7154    0.0000 C   0  0  0  0  0  0  0  0  0  0  0  0
   16.7224   -1.2846    0.0000 C   0  0  0  0  0  0  0  0  0  0  0  0
    3.7320    2.2154    0.0000 C   0  0  0  0  0  0  0  0  0  0  0  0
   15.8564   -2.7846    0.0000 C   0  0  0  0  0  0  0  0  0  0  0  0
    5.4641    3.2154    0.0000 C   0  0  0  0  0  0  0  0  0  0  0  0
   15.8564   -0.7846    0.0000 C   0  0  0  0  0  0  0  0  0  0  0  0
    5.4641    2.2154    0.0000 C   0  0  0  0  0  0  0  0  0  0  0  0
   14.9904   -1.2846    0.0000 C   0  0  0  0  0  0  0  0  0  0  0  0
    4.5981    1.7154    0.0000 C   0  0  0  0  0  0  0  0  0  0  0  0
   14.9904   -2.2846    0.0000 C   0  0  0  0  0  0  0  0  0  0  0  0
    2.8220    3.7222    0.0000 C   0  0  0  0  0  0  0  0  0  0  0  0
   17.6164   -2.8193    0.0000 C   0  0  0  0  0  0  0  0  0  0  0  0
    4.6141    4.7569    0.0000 C   0  0  0  0  0  0  0  0  0  0  0  0
   17.6164   -0.7500    0.0000 C   0  0  0  0  0  0  0  0  0  0  0  0
    2.8140    4.7638    0.0000 C   0  0  0  0  0  0  0  0  0  0  0  0
   18.5224   -2.3054    0.0000 C   0  0  0  0  0  0  0  0  0  0  0  0
    3.7161    5.2846    0.0000 C   0  0  0  0  0  0  0  0  0  0  0  0
   18.5224   -1.2638    0.0000 C   0  0  0  0  0  0  0  0  0  0  0  0
    9.7942    0.7154    0.0000 C   0  0  0  0  0  0  0  0  0  0  0  0
   10.6603    0.2154    0.0000 C   0  0  0  0  0  0  0  0  0  0  0  0
    8.0622    1.7154    0.0000 C   0  0  0  0  0  0  0  0  0  0  0  0
   12.3923   -0.7846    0.0000 C   0  0  0  0  0  0  0  0  0  0  0  0
    8.9282    0.2154    0.0000 C   0  0  0  0  0  0  0  0  0  0  0  0
   11.5263    0.7154    0.0000 C   0  0  0  0  0  0  0  0  0  0  0  0
    9.7942    1.7154    0.0000 C   0  0  0  0  0  0  0  0  0  0  0  0
   10.6603   -0.7846    0.0000 C   0  0  0  0  0  0  0  0  0  0  0  0
    8.0622    0.7154    0.0000 C   0  0  0  0  0  0  0  0  0  0  0  0
   12.3923    0.2154    0.0000 C   0  0  0  0  0  0  0  0  0  0  0  0
    8.9282    2.2154    0.0000 C   0  0  0  0  0  0  0  0  0  0  0  0
   11.5263   -1.2846    0.0000 C   0  0  0  0  0  0  0  0  0  0  0  0
  1  5  1  0
  1  7  2  0
  1  8  2  0
  1 21  1  0
  2  6  1  0
  2  9  2  0
  2 10  2  0
  2 22  1  0
 11 23  1  0
 12 24  1  0
 13 15  2  0
 13 25  1  0
 14 16  2  0
 14 26  1  0
 15 39  1  0
 16 40  1  0
 17 19  1  0
 17 21  2  0
 17 29  1  0
 18 20  1  0
 18 22  2  0
 18 30  1  0
 19 23  2  0
 19 31  1  0
 20 24  2  0
 20 32  1  0
 21 27  1  0
 22 28  1  0
 23 25  1  0
 24 26  1  0
 25 27  2  0
 26 28  2  0
 29 33  2  0
 30 34  2  0
 31 35  2  0
 32 36  2  0
 33 35  1  0
 34 36  1  0
 37 38  1  0
 37 41  2  0
 37 43  1  0
 38 42  2  0
 38 44  1  0
 39 45  2  0
 39 47  1  0
 40 46  2  0
 40 48  1  0
 41 45  1  0
 42 46  1  0
 43 47  2  0
 44 48  2  0
M  CHG  4   3   1   4   1   5  -1   6  -1
M  END
>  <PUBCHEM_COMPOUND_CID>  (1) 
11313

>  <PUBCHEM_COMPOUND_CANONICALIZED>  (1) 
1

>  <PUBCHEM_CACTVS_COMPLEXITY>  (1) 
1180

>  <PUBCHEM_CACTVS_HBOND_ACCEPTOR>  (1) 
12

>  <PUBCHEM_CACTVS_HBOND_DONOR>  (1) 
2

>  <PUBCHEM_CACTVS_ROTATABLE_BOND>  (1) 
5

>  <PUBCHEM_CACTVS_SUBSKEYS>  (1) 
AAADceB/uDBgAAAAAAAAAAAAAAAAAAAAAAAwYMGDAAAAAADBVAAAHAQYAAAADAiBWAAwwcBAAAKCAiRCQHDCAEAgAgAIiBgAdIgIYCKAkZGAIARggAAIyAcQgMAOiAQAwCAWACAQCAGAQCwAQAAAAAAAAA==

>  <PUBCHEM_IUPAC_OPENEYE_NAME>  (1) 
disodium;4-amino-3-[4-[4-[(1-amino-4-sulfonato-2-naphthyl)azo]phenyl]phenyl]azo-naphthalene-1-sulfonate

>  <PUBCHEM_IUPAC_CAS_NAME>  (1) 
disodium;4-amino-3-[4-[4-[(1-amino-4-sulfonato-2-naphthalenyl)azo]phenyl]phenyl]azo-1-naphthalenesulfonate

>  <PUBCHEM_IUPAC_NAME_MARKUP>  (1) 
disodium;4-amino-3-[[4-[4-[(1-amino-4-sulfonatonaphthalen-2-yl)diazenyl]phenyl]phenyl]diazenyl]naphthalene-1-sulfonate

>  <PUBCHEM_IUPAC_NAME>  (1) 
disodium;4-amino-3-[[4-[4-[(1-amino-4-sulfonatonaphthalen-2-yl)diazenyl]phenyl]phenyl]diazenyl]naphthalene-1-sulfonate

>  <PUBCHEM_IUPAC_SYSTEMATIC_NAME>  (1) 
disodium;4-azanyl-3-[[4-[4-[(1-azanyl-4-sulfonato-naphthalen-2-yl)diazenyl]phenyl]phenyl]diazenyl]naphthalene-1-sulfonate

>  <PUBCHEM_IUPAC_TRADITIONAL_NAME>  (1) 
disodium;4-amino-3-[4-[4-[(1-amino-4-sulfonato-2-naphthyl)azo]phenyl]phenyl]azo-naphthalene-1-sulfonate

>  <PUBCHEM_IUPAC_INCHI>  (1) 
InChI=1S/C32H24N6O6S2.2Na/c33-31-25-7-3-1-5-23(25)29(45(39,40)41)17-27(31)37-35-21-13-9-19(10-14-21)20-11-15-22(16-12-20)36-38-28-18-30(46(42,43)44)24-6-2-4-8-26(24)32(28)34;;/h1-18H,33-34H2,(H,39,40,41)(H,42,43,44);;/q;2*+1/p-2

>  <PUBCHEM_IUPAC_INCHIKEY>  (1) 
IQFVPQOLBLOTPF-UHFFFAOYSA-L

>  <PUBCHEM_EXACT_MASS>  (1) 
696.08376335

>  <PUBCHEM_MOLECULAR_FORMULA>  (1) 
C32H22N6Na2O6S2

>  <PUBCHEM_MOLECULAR_WEIGHT>  (1) 
696.7

>  <PUBCHEM_OPENEYE_CAN_SMILES>  (1) 
C1=CC=C2C(=C1)C(=CC(=C2N)N=NC3=CC=C(C=C3)C4=CC=C(C=C4)N=NC5=C(C6=CC=CC=C6C(=C5)S(=O)(=O)[O-])N)S(=O)(=O)[O-].[Na+].[Na+]

>  <PUBCHEM_OPENEYE_ISO_SMILES>  (1) 
C1=CC=C2C(=C1)C(=CC(=C2N)N=NC3=CC=C(C=C3)C4=CC=C(C=C4)N=NC5=C(C6=CC=CC=C6C(=C5)S(=O)(=O)[O-])N)S(=O)(=O)[O-].[Na+].[Na+]

>  <PUBCHEM_CACTVS_TPSA>  (1) 
233

>  <PUBCHEM_MONOISOTOPIC_WEIGHT>  (1) 
696.08376335

>  <PUBCHEM_TOTAL_CHARGE>  (1) 
0

>  <PUBCHEM_HEAVY_ATOM_COUNT>  (1) 
48

>  <PUBCHEM_ATOM_DEF_STEREO_COUNT>  (1) 
0

>  <PUBCHEM_ATOM_UDEF_STEREO_COUNT>  (1) 
0

>  <PUBCHEM_BOND_DEF_STEREO_COUNT>  (1) 
0

>  <PUBCHEM_BOND_UDEF_STEREO_COUNT>  (1) 
0

>  <PUBCHEM_ISOTOPIC_ATOM_COUNT>  (1) 
0

>  <PUBCHEM_COMPONENT_COUNT>  (1) 
3

>  <PUBCHEM_CACTVS_TAUTO_COUNT>  (1) 
-1

>  <PUBCHEM_COORDINATE_TYPE>  (1) 
1
5
255

>  <PUBCHEM_BONDANNOTATIONS>  (1) 
17  19  8
17  21  8
17  29  8
18  20  8
18  22  8
18  30  8
19  23  8
19  31  8
20  24  8
20  32  8
21  27  8
22  28  8
23  25  8
24  26  8
25  27  8
26  28  8
29  33  8
30  34  8
31  35  8
32  36  8
33  35  8
34  36  8
37  41  8
37  43  8
38  42  8
38  44  8
39  45  8
39  47  8
40  46  8
40  48  8
41  45  8
42  46  8
43  47  8
44  48  8

$$$$
