16362
     RDKit          2D

 34 38  0  0  0  0  0  0  0  0999 V2000
    9.4312    5.5830    0.0000 F   0  0  0  0  0  0  0  0  0  0  0  0
   10.8600   -1.1963    0.0000 F   0  0  0  0  0  0  0  0  0  0  0  0
    6.2619   -4.1889    0.0000 O   0  0  0  0  0  0  0  0  0  0  0  0
    5.6103   -0.5326    0.0000 N   0  0  0  0  0  0  0  0  0  0  0  0
    4.6783   -3.3842    0.0000 N   0  0  0  0  0  0  0  0  0  0  0  0
    4.6783   -4.9936    0.0000 N   0  0  0  0  0  0  0  0  0  0  0  0
    4.9889   -2.4336    0.0000 C   0  0  0  0  0  0  0  0  0  0  0  0
    4.3211   -1.6893    0.0000 C   0  0  0  0  0  0  0  0  0  0  0  0
    5.9674   -2.2274    0.0000 C   0  0  0  0  0  0  0  0  0  0  0  0
    4.6318   -0.7388    0.0000 C   0  0  0  0  0  0  0  0  0  0  0  0
    6.2781   -1.2769    0.0000 C   0  0  0  0  0  0  0  0  0  0  0  0
    5.9209    0.4179    0.0000 C   0  0  0  0  0  0  0  0  0  0  0  0
    6.8994    0.6241    0.0000 C   0  0  0  0  0  0  0  0  0  0  0  0
    3.7320   -3.6889    0.0000 C   0  0  0  0  0  0  0  0  0  0  0  0
    7.2101    1.5747    0.0000 C   0  0  0  0  0  0  0  0  0  0  0  0
    5.2619   -4.1889    0.0000 C   0  0  0  0  0  0  0  0  0  0  0  0
    8.1886    1.7809    0.0000 C   0  0  0  0  0  0  0  0  0  0  0  0
    3.7320   -4.6889    0.0000 C   0  0  0  0  0  0  0  0  0  0  0  0
    2.8660   -3.1889    0.0000 C   0  0  0  0  0  0  0  0  0  0  0  0
    8.4993    2.7314    0.0000 C   0  0  0  0  0  0  0  0  0  0  0  0
    8.8564    1.0366    0.0000 C   0  0  0  0  0  0  0  0  0  0  0  0
    2.8660   -5.1889    0.0000 C   0  0  0  0  0  0  0  0  0  0  0  0
    2.0000   -3.6889    0.0000 C   0  0  0  0  0  0  0  0  0  0  0  0
    2.0000   -4.6889    0.0000 C   0  0  0  0  0  0  0  0  0  0  0  0
    7.8314    3.4757    0.0000 C   0  0  0  0  0  0  0  0  0  0  0  0
    9.8349    1.2428    0.0000 C   0  0  0  0  0  0  0  0  0  0  0  0
    9.4778    2.9376    0.0000 C   0  0  0  0  0  0  0  0  0  0  0  0
    8.5458    0.0861    0.0000 C   0  0  0  0  0  0  0  0  0  0  0  0
    8.1421    4.4262    0.0000 C   0  0  0  0  0  0  0  0  0  0  0  0
   10.5028    0.4985    0.0000 C   0  0  0  0  0  0  0  0  0  0  0  0
    9.7884    3.8881    0.0000 C   0  0  0  0  0  0  0  0  0  0  0  0
    9.2136   -0.6583    0.0000 C   0  0  0  0  0  0  0  0  0  0  0  0
    9.1206    4.6324    0.0000 C   0  0  0  0  0  0  0  0  0  0  0  0
   10.1921   -0.4520    0.0000 C   0  0  0  0  0  0  0  0  0  0  0  0
  1 33  1  0
  2 34  1  0
  3 16  2  0
  4 10  1  0
  4 11  1  0
  4 12  1  0
  5  7  1  0
  5 14  1  0
  5 16  1  0
  6 16  1  0
  6 18  1  0
  7  8  1  0
  7  9  1  0
  8 10  1  0
  9 11  1  0
 12 13  1  0
 13 15  1  0
 14 18  2  0
 14 19  1  0
 15 17  1  0
 17 20  1  0
 17 21  1  0
 18 22  1  0
 19 23  2  0
 20 25  2  0
 20 27  1  0
 21 26  2  0
 21 28  1  0
 22 24  2  0
 23 24  1  0
 25 29  1  0
 26 30  1  0
 27 31  2  0
 28 32  2  0
 29 33  2  0
 30 34  2  0
 31 33  1  0
 32 34  1  0
M  END
>  <PUBCHEM_COMPOUND_CID>  (1) 
16362

>  <PUBCHEM_COMPOUND_CANONICALIZED>  (1) 
1

>  <PUBCHEM_CACTVS_COMPLEXITY>  (1) 
632

>  <PUBCHEM_CACTVS_HBOND_ACCEPTOR>  (1) 
4

>  <PUBCHEM_CACTVS_HBOND_DONOR>  (1) 
1

>  <PUBCHEM_CACTVS_ROTATABLE_BOND>  (1) 
7

>  <PUBCHEM_CACTVS_SUBSKEYS>  (1) 
AAADceB7IYAAAAAAAAAAAAAAAAAAAWAAAAA8YMEAAAAAAFgBUAAAHwAQAAAADSjBGAwxwIPAAACIAiRCUACCAAAhAgAIiAAIdIiIYCLA0ZGUIAholgLIyCcQgMAOgAAAAAAAACAAAAAAAAAAQAAAAAAAAA==

>  <PUBCHEM_IUPAC_OPENEYE_NAME>  (1) 
3-[1-[4,4-bis(4-fluorophenyl)butyl]-4-piperidyl]-1H-benzimidazol-2-one

>  <PUBCHEM_IUPAC_CAS_NAME>  (1) 
3-[1-[4,4-bis(4-fluorophenyl)butyl]-4-piperidinyl]-1H-benzimidazol-2-one

>  <PUBCHEM_IUPAC_NAME_MARKUP>  (1) 
3-[1-[4,4-bis(4-fluorophenyl)butyl]piperidin-4-yl]-1<I>H</I>-benzimidazol-2-one

>  <PUBCHEM_IUPAC_NAME>  (1) 
3-[1-[4,4-bis(4-fluorophenyl)butyl]piperidin-4-yl]-1H-benzimidazol-2-one

>  <PUBCHEM_IUPAC_SYSTEMATIC_NAME>  (1) 
3-[1-[4,4-bis(4-fluorophenyl)butyl]piperidin-4-yl]-1H-benzimidazol-2-one

>  <PUBCHEM_IUPAC_TRADITIONAL_NAME>  (1) 
3-[1-[4,4-bis(4-fluorophenyl)butyl]-4-piperidyl]-1H-benzimidazol-2-one

>  <PUBCHEM_IUPAC_INCHI>  (1) 
InChI=1S/C28H29F2N3O/c29-22-11-7-20(8-12-22)25(21-9-13-23(30)14-10-21)4-3-17-32-18-15-24(16-19-32)33-27-6-2-1-5-26(27)31-28(33)34/h1-2,5-14,24-25H,3-4,15-19H2,(H,31,34)

>  <PUBCHEM_IUPAC_INCHIKEY>  (1) 
YVUQSNJEYSNKRX-UHFFFAOYSA-N

>  <PUBCHEM_XLOGP3>  (1) 
6.3

>  <PUBCHEM_EXACT_MASS>  (1) 
461.22786888

>  <PUBCHEM_MOLECULAR_FORMULA>  (1) 
C28H29F2N3O

>  <PUBCHEM_MOLECULAR_WEIGHT>  (1) 
461.5

>  <PUBCHEM_OPENEYE_CAN_SMILES>  (1) 
C1CN(CCC1N2C3=CC=CC=C3NC2=O)CCCC(C4=CC=C(C=C4)F)C5=CC=C(C=C5)F

>  <PUBCHEM_OPENEYE_ISO_SMILES>  (1) 
C1CN(CCC1N2C3=CC=CC=C3NC2=O)CCCC(C4=CC=C(C=C4)F)C5=CC=C(C=C5)F

>  <PUBCHEM_CACTVS_TPSA>  (1) 
35.6

>  <PUBCHEM_MONOISOTOPIC_WEIGHT>  (1) 
461.22786888

>  <PUBCHEM_TOTAL_CHARGE>  (1) 
0

>  <PUBCHEM_HEAVY_ATOM_COUNT>  (1) 
34

>  <PUBCHEM_ATOM_DEF_STEREO_COUNT>  (1) 
0

>  <PUBCHEM_ATOM_UDEF_STEREO_COUNT>  (1) 
0

>  <PUBCHEM_BOND_DEF_STEREO_COUNT>  (1) 
0

>  <PUBCHEM_BOND_UDEF_STEREO_COUNT>  (1) 
0

>  <PUBCHEM_ISOTOPIC_ATOM_COUNT>  (1) 
0

>  <PUBCHEM_COMPONENT_COUNT>  (1) 
1

>  <PUBCHEM_CACTVS_TAUTO_COUNT>  (1) 
-1

>  <PUBCHEM_COORDINATE_TYPE>  (1) 
1
5
255

>  <PUBCHEM_BONDANNOTATIONS>  (1) 
14  18  8
14  19  8
18  22  8
19  23  8
20  25  8
20  27  8
21  26  8
21  28  8
22  24  8
23  24  8
25  29  8
26  30  8
27  31  8
28  32  8
29  33  8
30  34  8
31  33  8
32  34  8
5  14  8
5  16  8
6  16  8
6  18  8

$$$$
