6306
     RDKit          2D

  9  8  0  0  1  0  0  0  0  0999 V2000
    2.5369   -0.0950    0.0000 O   0  0  0  0  0  0  0  0  0  0  0  0
    3.4030    1.4050    0.0000 O   0  0  0  0  0  0  0  0  0  0  0  0
    4.2690   -1.0950    0.0000 N   0  0  0  0  0  0  0  0  0  0  0  0
    5.1350    0.4050    0.0000 C   0  0  0  0  0  0  0  0  0  0  0  0
    4.2690   -0.0950    0.0000 C   0  0  0  0  0  0  0  0  0  0  0  0
    6.0010   -0.0950    0.0000 C   0  0  0  0  0  0  0  0  0  0  0  0
    5.1350    1.4050    0.0000 C   0  0  0  0  0  0  0  0  0  0  0  0
    6.8671    0.4050    0.0000 C   0  0  0  0  0  0  0  0  0  0  0  0
    3.4030    0.4050    0.0000 C   0  0  0  0  0  0  0  0  0  0  0  0
  1  9  1  0
  2  9  2  0
  5  3  1  6
  4  5  1  0
  4  6  1  0
  4  7  1  1
  5  9  1  0
  6  8  1  0
M  END
>  <PUBCHEM_COMPOUND_CID>  (1) 
6306

>  <PUBCHEM_COMPOUND_CANONICALIZED>  (1) 
1

>  <PUBCHEM_CACTVS_COMPLEXITY>  (1) 
103

>  <PUBCHEM_CACTVS_HBOND_ACCEPTOR>  (1) 
3

>  <PUBCHEM_CACTVS_HBOND_DONOR>  (1) 
2

>  <PUBCHEM_CACTVS_ROTATABLE_BOND>  (1) 
3

>  <PUBCHEM_CACTVS_SUBSKEYS>  (1) 
AAADccBiMAAAAAAAAAAAAAAAAAAAAAAAAAAAAAAAAAAAAAAAAAAAHgAQCAAADSjBgAQCCABAAgAIAACQCAAAAAAAAAAAAIGAAAACABIAgAAAQAAEEAAAAACIAAAKAAAAAAAAAAAAAAAAAAAAAAAAAAAAAA==

>  <PUBCHEM_IUPAC_OPENEYE_NAME>  (1) 
(2S,3S)-2-amino-3-methyl-pentanoic acid

>  <PUBCHEM_IUPAC_CAS_NAME>  (1) 
(2S,3S)-2-amino-3-methylpentanoic acid

>  <PUBCHEM_IUPAC_NAME_MARKUP>  (1) 
(2<I>S</I>,3<I>S</I>)-2-amino-3-methylpentanoic acid

>  <PUBCHEM_IUPAC_NAME>  (1) 
(2S,3S)-2-amino-3-methylpentanoic acid

>  <PUBCHEM_IUPAC_SYSTEMATIC_NAME>  (1) 
(2S,3S)-2-azanyl-3-methyl-pentanoic acid

>  <PUBCHEM_IUPAC_TRADITIONAL_NAME>  (1) 
(2S,3S)-2-amino-3-methyl-valeric acid

>  <PUBCHEM_IUPAC_INCHI>  (1) 
InChI=1S/C6H13NO2/c1-3-4(2)5(7)6(8)9/h4-5H,3,7H2,1-2H3,(H,8,9)/t4-,5-/m0/s1

>  <PUBCHEM_IUPAC_INCHIKEY>  (1) 
AGPKZVBTJJNPAG-WHFBIAKZSA-N

>  <PUBCHEM_XLOGP3>  (1) 
-1.7

>  <PUBCHEM_EXACT_MASS>  (1) 
131.094628657

>  <PUBCHEM_MOLECULAR_FORMULA>  (1) 
C6H13NO2

>  <PUBCHEM_MOLECULAR_WEIGHT>  (1) 
131.17

>  <PUBCHEM_OPENEYE_CAN_SMILES>  (1) 
CCC(C)C(C(=O)O)N

>  <PUBCHEM_OPENEYE_ISO_SMILES>  (1) 
CC[C@H](C)[C@@H](C(=O)O)N

>  <PUBCHEM_CACTVS_TPSA>  (1) 
63.3

>  <PUBCHEM_MONOISOTOPIC_WEIGHT>  (1) 
131.094628657

>  <PUBCHEM_TOTAL_CHARGE>  (1) 
0

>  <PUBCHEM_HEAVY_ATOM_COUNT>  (1) 
9

>  <PUBCHEM_ATOM_DEF_STEREO_COUNT>  (1) 
2

>  <PUBCHEM_ATOM_UDEF_STEREO_COUNT>  (1) 
0

>  <PUBCHEM_BOND_DEF_STEREO_COUNT>  (1) 
0

>  <PUBCHEM_BOND_UDEF_STEREO_COUNT>  (1) 
0

>  <PUBCHEM_ISOTOPIC_ATOM_COUNT>  (1) 
0

>  <PUBCHEM_COMPONENT_COUNT>  (1) 
1

>  <PUBCHEM_CACTVS_TAUTO_COUNT>  (1) 
-1

>  <PUBCHEM_COORDINATE_TYPE>  (1) 
1
5
255

>  <PUBCHEM_BONDANNOTATIONS>  (1) 
5  3  6
4  7  5

$$$$
