60700
     RDKit          2D

 31 35  0  0  1  0  0  0  0  0999 V2000
    6.7792    4.8485    0.0000 O   0  0  0  0  0  0  0  0  0  0  0  0
    8.6732    3.2745    0.0000 O   0  0  0  0  0  0  0  0  0  0  0  0
    4.1652    3.2792    0.0000 O   0  0  0  0  0  0  0  0  0  0  0  0
    8.5492    4.8243    0.0000 O   0  0  0  0  0  0  0  0  0  0  0  0
    4.6250   -4.3452    0.0000 O   0  0  0  0  0  0  0  0  0  0  0  0
    5.0312    1.7792    0.0000 N   0  0  0  0  0  0  0  0  0  0  0  0
    6.3088   -0.5214    0.0000 N   0  0  0  0  0  0  0  0  0  0  0  0
    2.9957   -3.5562    0.0000 N   0  0  0  0  0  0  0  0  0  0  0  0
    7.6733    3.2861    0.0000 C   0  0  0  0  0  0  0  0  0  0  0  0
    6.7633    2.7792    0.0000 C   0  0  0  0  0  0  0  0  0  0  0  0
    5.8972    1.2792    0.0000 C   0  0  0  0  0  0  0  0  0  0  0  0
    4.2942    1.1121    0.0000 C   0  0  0  0  0  0  0  0  0  0  0  0
    5.8972    3.2792    0.0000 C   0  0  0  0  0  0  0  0  0  0  0  0
    4.6993    0.2043    0.0000 C   0  0  0  0  0  0  0  0  0  0  0  0
    5.6880    0.3074    0.0000 C   0  0  0  0  0  0  0  0  0  0  0  0
    6.7633    1.7792    0.0000 C   0  0  0  0  0  0  0  0  0  0  0  0
    5.0312    2.7792    0.0000 C   0  0  0  0  0  0  0  0  0  0  0  0
    8.1632    2.4143    0.0000 C   0  0  0  0  0  0  0  0  0  0  0  0
    5.8812    4.3207    0.0000 C   0  0  0  0  0  0  0  0  0  0  0  0
    7.6813    4.3277    0.0000 C   0  0  0  0  0  0  0  0  0  0  0  0
    4.2628   -0.7346    0.0000 C   0  0  0  0  0  0  0  0  0  0  0  0
    4.8642   -1.5775    0.0000 C   0  0  0  0  0  0  0  0  0  0  0  0
    5.8941   -1.4702    0.0000 C   0  0  0  0  0  0  0  0  0  0  0  0
    4.4096   -2.5556    0.0000 C   0  0  0  0  0  0  0  0  0  0  0  0
    7.6532    1.5541    0.0000 C   0  0  0  0  0  0  0  0  0  0  0  0
    3.4138   -2.6477    0.0000 C   0  0  0  0  0  0  0  0  0  0  0  0
    6.5407   -2.3334    0.0000 C   0  0  0  0  0  0  0  0  0  0  0  0
    5.0360   -3.4336    0.0000 C   0  0  0  0  0  0  0  0  0  0  0  0
    6.1088   -3.3217    0.0000 C   0  0  0  0  0  0  0  0  0  0  0  0
    2.0000   -3.6483    0.0000 C   0  0  0  0  0  0  0  0  0  0  0  0
    3.5734   -4.3724    0.0000 C   0  0  0  0  0  0  0  0  0  0  0  0
  1 19  1  0
  1 20  1  0
  9  2  1  1
  3 17  2  0
  4 20  2  0
  5 28  1  0
  6 11  1  0
  6 12  1  0
  6 17  1  0
  7 15  2  0
  7 23  1  0
  8 26  1  0
  8 30  1  0
  8 31  1  0
  9 10  1  0
  9 18  1  0
  9 20  1  0
 10 13  2  0
 10 16  1  0
 11 15  1  0
 11 16  2  0
 12 14  1  0
 13 17  1  0
 13 19  1  0
 14 15  1  0
 14 21  2  0
 18 25  1  0
 21 22  1  0
 22 23  2  0
 22 24  1  0
 23 27  1  0
 24 26  1  0
 24 28  2  0
 27 29  2  0
 28 29  1  0
M  END
>  <PUBCHEM_COMPOUND_CID>  (1) 
60700

>  <PUBCHEM_COMPOUND_CANONICALIZED>  (1) 
1

>  <PUBCHEM_CACTVS_COMPLEXITY>  (1) 
867

>  <PUBCHEM_CACTVS_HBOND_ACCEPTOR>  (1) 
7

>  <PUBCHEM_CACTVS_HBOND_DONOR>  (1) 
2

>  <PUBCHEM_CACTVS_ROTATABLE_BOND>  (1) 
3

>  <PUBCHEM_CACTVS_SUBSKEYS>  (1) 
AAADceB7OAAAAAAAAAAAAAAAAAAAAWAAAAA8QIEAAAAAAFix8AAAHgAACAAADEzhngYyzvMIFgCoAyXyXAKCgCAhIiAImCF+bNgJZvbC8ZOWcAhm5hHL+QewwPAOgEABQAAaAAAAgAKAADQAAAAAAAAAAA==

>  <PUBCHEM_IUPAC_OPENEYE_NAME>  (1) 
(19S)-8-[(dimethylamino)methyl]-19-ethyl-7,19-dihydroxy-17-oxa-3,13-diazapentacyclo[11.8.0.02,11.04,9.015,20]henicosa-1(21),2,4(9),5,7,10,15(20)-heptaene-14,18-dione

>  <PUBCHEM_IUPAC_CAS_NAME>  (1) 
(19S)-8-[(dimethylamino)methyl]-19-ethyl-7,19-dihydroxy-17-oxa-3,13-diazapentacyclo[11.8.0.02,11.04,9.015,20]heneicosa-1(21),2,4(9),5,7,10,15(20)-heptaene-14,18-dione

>  <PUBCHEM_IUPAC_NAME_MARKUP>  (1) 
(19<I>S</I>)-8-[(dimethylamino)methyl]-19-ethyl-7,19-dihydroxy-17-oxa-3,13-diazapentacyclo[11.8.0.0<SUP>2,11</SUP>.0<SUP>4,9</SUP>.0<SUP>15,20</SUP>]henicosa-1(21),2,4(9),5,7,10,15(20)-heptaene-14,18-dione

>  <PUBCHEM_IUPAC_NAME>  (1) 
(19S)-8-[(dimethylamino)methyl]-19-ethyl-7,19-dihydroxy-17-oxa-3,13-diazapentacyclo[11.8.0.02,11.04,9.015,20]henicosa-1(21),2,4(9),5,7,10,15(20)-heptaene-14,18-dione

>  <PUBCHEM_IUPAC_SYSTEMATIC_NAME>  (1) 
(19S)-8-[(dimethylamino)methyl]-19-ethyl-7,19-bis(oxidanyl)-17-oxa-3,13-diazapentacyclo[11.8.0.02,11.04,9.015,20]henicosa-1(21),2,4(9),5,7,10,15(20)-heptaene-14,18-dione

>  <PUBCHEM_IUPAC_TRADITIONAL_NAME>  (1) 
(19S)-8-[(dimethylamino)methyl]-19-ethyl-7,19-dihydroxy-17-oxa-3,13-diazapentacyclo[11.8.0.02,11.04,9.015,20]heneicosa-1(21),2,4(9),5,7,10,15(20)-heptaene-14,18-quinone

>  <PUBCHEM_IUPAC_INCHI>  (1) 
InChI=1S/C23H23N3O5/c1-4-23(30)16-8-18-20-12(9-26(18)21(28)15(16)11-31-22(23)29)7-13-14(10-25(2)3)19(27)6-5-17(13)24-20/h5-8,27,30H,4,9-11H2,1-3H3/t23-/m0/s1

>  <PUBCHEM_IUPAC_INCHIKEY>  (1) 
UCFGDBYHRUNTLO-QHCPKHFHSA-N

>  <PUBCHEM_XLOGP3_AA>  (1) 
0.5

>  <PUBCHEM_EXACT_MASS>  (1) 
421.16377084

>  <PUBCHEM_MOLECULAR_FORMULA>  (1) 
C23H23N3O5

>  <PUBCHEM_MOLECULAR_WEIGHT>  (1) 
421.4

>  <PUBCHEM_OPENEYE_CAN_SMILES>  (1) 
CCC1(C2=C(COC1=O)C(=O)N3CC4=CC5=C(C=CC(=C5CN(C)C)O)N=C4C3=C2)O

>  <PUBCHEM_OPENEYE_ISO_SMILES>  (1) 
CC[C@@]1(C2=C(COC1=O)C(=O)N3CC4=CC5=C(C=CC(=C5CN(C)C)O)N=C4C3=C2)O

>  <PUBCHEM_CACTVS_TPSA>  (1) 
103

>  <PUBCHEM_MONOISOTOPIC_WEIGHT>  (1) 
421.16377084

>  <PUBCHEM_TOTAL_CHARGE>  (1) 
0

>  <PUBCHEM_HEAVY_ATOM_COUNT>  (1) 
31

>  <PUBCHEM_ATOM_DEF_STEREO_COUNT>  (1) 
1

>  <PUBCHEM_ATOM_UDEF_STEREO_COUNT>  (1) 
0

>  <PUBCHEM_BOND_DEF_STEREO_COUNT>  (1) 
0

>  <PUBCHEM_BOND_UDEF_STEREO_COUNT>  (1) 
0

>  <PUBCHEM_ISOTOPIC_ATOM_COUNT>  (1) 
0

>  <PUBCHEM_COMPONENT_COUNT>  (1) 
1

>  <PUBCHEM_CACTVS_TAUTO_COUNT>  (1) 
7

>  <PUBCHEM_COORDINATE_TYPE>  (1) 
1
5
255

>  <PUBCHEM_BONDANNOTATIONS>  (1) 
10  13  8
10  16  8
11  16  8
13  17  8
14  15  8
14  21  8
9  2  5
21  22  8
22  23  8
22  24  8
23  27  8
24  28  8
27  29  8
28  29  8
6  11  8
6  17  8
7  15  8
7  23  8

$$$$
