4008
     RDKit          2D

 45 49  0  0  1  0  0  0  0  0999 V2000
    9.7942   -1.4400    0.0000 O   0  0  0  0  0  0  0  0  0  0  0  0
   10.6603    0.0600    0.0000 O   0  0  0  0  0  0  0  0  0  0  0  0
   14.9904   -1.4400    0.0000 O   0  0  0  0  0  0  0  0  0  0  0  0
   14.1244    0.0600    0.0000 O   0  0  0  0  0  0  0  0  0  0  0  0
   14.1244    3.0600    0.0000 O   0  0  0  0  0  0  0  0  0  0  0  0
   14.9904    1.5600    0.0000 O   0  0  0  0  0  0  0  0  0  0  0  0
    5.4641    0.0600    0.0000 N   0  0  0  0  0  0  0  0  0  0  0  0
    7.1962   -0.9400    0.0000 N   0  0  0  0  0  0  0  0  0  0  0  0
   12.3923   -2.9400    0.0000 N   0  0  0  0  0  0  0  0  0  0  0  0
   14.1244    2.0600    0.0000 N   0  0  0  0  0  0  0  0  0  0  0  0
    5.4641   -0.9400    0.0000 C   0  0  0  0  0  0  0  0  0  0  0  0
    6.3301    0.5600    0.0000 C   0  0  0  0  0  0  0  0  0  0  0  0
    6.3301   -1.4400    0.0000 C   0  0  0  0  0  0  0  0  0  0  0  0
    7.1962    0.0600    0.0000 C   0  0  0  0  0  0  0  0  0  0  0  0
    4.5981    0.5600    0.0000 C   0  0  0  0  0  0  0  0  0  0  0  0
    8.0622   -1.4400    0.0000 C   0  0  0  0  0  0  0  0  0  0  0  0
    3.7320    0.0600    0.0000 C   0  0  0  0  0  0  0  0  0  0  0  0
    4.5981    1.5600    0.0000 C   0  0  0  0  0  0  0  0  0  0  0  0
    8.9282   -0.9400    0.0000 C   0  0  0  0  0  0  0  0  0  0  0  0
    2.8660    0.5600    0.0000 C   0  0  0  0  0  0  0  0  0  0  0  0
    5.4641    2.0600    0.0000 C   0  0  0  0  0  0  0  0  0  0  0  0
    3.7320   -0.9400    0.0000 C   0  0  0  0  0  0  0  0  0  0  0  0
    3.7320    2.0600    0.0000 C   0  0  0  0  0  0  0  0  0  0  0  0
   12.3923   -0.9400    0.0000 C   0  0  0  0  0  0  0  0  0  0  0  0
   11.5263   -1.4400    0.0000 C   0  0  0  0  0  0  0  0  0  0  0  0
   13.2583   -1.4400    0.0000 C   0  0  0  0  0  0  0  0  0  0  0  0
   10.6603   -0.9400    0.0000 C   0  0  0  0  0  0  0  0  0  0  0  0
   11.5263   -2.4400    0.0000 C   0  0  0  0  0  0  0  0  0  0  0  0
   12.3923    0.0600    0.0000 C   0  0  0  0  0  0  0  0  0  0  0  0
    2.0000    0.0600    0.0000 C   0  0  0  0  0  0  0  0  0  0  0  0
    5.4641    3.0600    0.0000 C   0  0  0  0  0  0  0  0  0  0  0  0
    2.8660   -1.4400    0.0000 C   0  0  0  0  0  0  0  0  0  0  0  0
    3.7320    3.0600    0.0000 C   0  0  0  0  0  0  0  0  0  0  0  0
   13.2583   -2.4400    0.0000 C   0  0  0  0  0  0  0  0  0  0  0  0
    2.0000   -0.9400    0.0000 C   0  0  0  0  0  0  0  0  0  0  0  0
    4.5981    3.5600    0.0000 C   0  0  0  0  0  0  0  0  0  0  0  0
   10.6603   -2.9400    0.0000 C   0  0  0  0  0  0  0  0  0  0  0  0
   13.2583    0.5600    0.0000 C   0  0  0  0  0  0  0  0  0  0  0  0
   11.5263    0.5600    0.0000 C   0  0  0  0  0  0  0  0  0  0  0  0
   14.1244   -0.9400    0.0000 C   0  0  0  0  0  0  0  0  0  0  0  0
   14.1244   -2.9400    0.0000 C   0  0  0  0  0  0  0  0  0  0  0  0
   13.2583    1.5600    0.0000 C   0  0  0  0  0  0  0  0  0  0  0  0
   11.5263    1.5600    0.0000 C   0  0  0  0  0  0  0  0  0  0  0  0
   12.3923    2.0600    0.0000 C   0  0  0  0  0  0  0  0  0  0  0  0
   15.8564   -0.9400    0.0000 C   0  0  0  0  0  0  0  0  0  0  0  0
  1 19  1  0
  1 27  1  0
  2 27  2  0
  3 40  1  0
  3 45  1  0
  4 40  2  0
  5 10  1  0
  6 10  2  0
  7 11  1  0
  7 12  1  0
  7 15  1  0
  8 13  1  0
  8 14  1  0
  8 16  1  0
  9 28  1  0
  9 34  1  0
 10 42  1  0
 11 13  1  0
 12 14  1  0
 15 17  1  0
 15 18  1  0
 16 19  1  0
 17 20  2  0
 17 22  1  0
 18 21  2  0
 18 23  1  0
 20 30  1  0
 21 31  1  0
 22 32  2  0
 23 33  2  0
 24 25  1  0
 24 26  1  0
 24 29  1  0
 25 27  1  0
 25 28  2  0
 26 34  2  0
 26 40  1  0
 28 37  1  0
 29 38  2  0
 29 39  1  0
 30 35  2  0
 31 36  2  0
 32 35  1  0
 33 36  1  0
 34 41  1  0
 38 42  1  0
 39 43  2  0
 42 44  2  0
 43 44  1  0
M  CHG  2   5  -1  10   1
M  END
>  <PUBCHEM_COMPOUND_CID>  (1) 
4008

>  <PUBCHEM_COMPOUND_CANONICALIZED>  (1) 
1

>  <PUBCHEM_CACTVS_COMPLEXITY>  (1) 
1090

>  <PUBCHEM_CACTVS_HBOND_ACCEPTOR>  (1) 
9

>  <PUBCHEM_CACTVS_HBOND_DONOR>  (1) 
1

>  <PUBCHEM_CACTVS_ROTATABLE_BOND>  (1) 
11

>  <PUBCHEM_CACTVS_SUBSKEYS>  (1) 
AAADcfB/uAAAAAAAAAAAAAAAAAAAAAAAAAA8YMECAAAAAAABUAAAHgAUAAAADSjhmAYyyIPQRACJAiTSSwCCAAAgAgAoiAEIZMoKZDKAsZGXMAhkkACY6UeY7uiOgAAAQAAAAAAAAACAAAAAAAAAAAAAAA==

>  <PUBCHEM_IUPAC_OPENEYE_NAME>  (1) 
O5-[2-(4-benzhydrylpiperazin-1-yl)ethyl] O3-methyl 2,6-dimethyl-4-(3-nitrophenyl)-1,4-dihydropyridine-3,5-dicarboxylate

>  <PUBCHEM_IUPAC_CAS_NAME>  (1) 
2,6-dimethyl-4-(3-nitrophenyl)-1,4-dihydropyridine-3,5-dicarboxylic acid O5-[2-[4-(diphenylmethyl)-1-piperazinyl]ethyl] ester O3-methyl ester

>  <PUBCHEM_IUPAC_NAME_MARKUP>  (1) 
5-<I>O</I>-[2-(4-benzhydrylpiperazin-1-yl)ethyl] 3-<I>O</I>-methyl 2,6-dimethyl-4-(3-nitrophenyl)-1,4-dihydropyridine-3,5-dicarboxylate

>  <PUBCHEM_IUPAC_NAME>  (1) 
5-O-[2-(4-benzhydrylpiperazin-1-yl)ethyl] 3-O-methyl 2,6-dimethyl-4-(3-nitrophenyl)-1,4-dihydropyridine-3,5-dicarboxylate

>  <PUBCHEM_IUPAC_SYSTEMATIC_NAME>  (1) 
O5-[2-[4-(diphenylmethyl)piperazin-1-yl]ethyl] O3-methyl 2,6-dimethyl-4-(3-nitrophenyl)-1,4-dihydropyridine-3,5-dicarboxylate

>  <PUBCHEM_IUPAC_TRADITIONAL_NAME>  (1) 
2,6-dimethyl-4-(3-nitrophenyl)-1,4-dihydropyridine-3,5-dicarboxylic acid O5-[2-(4-benzhydrylpiperazino)ethyl] ester O3-methyl ester

>  <PUBCHEM_IUPAC_INCHI>  (1) 
InChI=1S/C35H38N4O6/c1-24-30(34(40)44-3)32(28-15-10-16-29(23-28)39(42)43)31(25(2)36-24)35(41)45-22-21-37-17-19-38(20-18-37)33(26-11-6-4-7-12-26)27-13-8-5-9-14-27/h4-16,23,32-33,36H,17-22H2,1-3H3

>  <PUBCHEM_IUPAC_INCHIKEY>  (1) 
ANEBWFXPVPTEET-UHFFFAOYSA-N

>  <PUBCHEM_XLOGP3>  (1) 
5.6

>  <PUBCHEM_EXACT_MASS>  (1) 
610.27913494

>  <PUBCHEM_MOLECULAR_FORMULA>  (1) 
C35H38N4O6

>  <PUBCHEM_MOLECULAR_WEIGHT>  (1) 
610.7

>  <PUBCHEM_OPENEYE_CAN_SMILES>  (1) 
CC1=C(C(C(=C(N1)C)C(=O)OCCN2CCN(CC2)C(C3=CC=CC=C3)C4=CC=CC=C4)C5=CC(=CC=C5)[N+](=O)[O-])C(=O)OC

>  <PUBCHEM_OPENEYE_ISO_SMILES>  (1) 
CC1=C(C(C(=C(N1)C)C(=O)OCCN2CCN(CC2)C(C3=CC=CC=C3)C4=CC=CC=C4)C5=CC(=CC=C5)[N+](=O)[O-])C(=O)OC

>  <PUBCHEM_CACTVS_TPSA>  (1) 
117

>  <PUBCHEM_MONOISOTOPIC_WEIGHT>  (1) 
610.27913494

>  <PUBCHEM_TOTAL_CHARGE>  (1) 
0

>  <PUBCHEM_HEAVY_ATOM_COUNT>  (1) 
45

>  <PUBCHEM_ATOM_DEF_STEREO_COUNT>  (1) 
0

>  <PUBCHEM_ATOM_UDEF_STEREO_COUNT>  (1) 
1

>  <PUBCHEM_BOND_DEF_STEREO_COUNT>  (1) 
0

>  <PUBCHEM_BOND_UDEF_STEREO_COUNT>  (1) 
0

>  <PUBCHEM_ISOTOPIC_ATOM_COUNT>  (1) 
0

>  <PUBCHEM_COMPONENT_COUNT>  (1) 
1

>  <PUBCHEM_CACTVS_TAUTO_COUNT>  (1) 
-1

>  <PUBCHEM_COORDINATE_TYPE>  (1) 
1
5
255

>  <PUBCHEM_BONDANNOTATIONS>  (1) 
17  20  8
17  22  8
18  21  8
18  23  8
20  30  8
21  31  8
22  32  8
23  33  8
24  29  3
29  38  8
29  39  8
30  35  8
31  36  8
32  35  8
33  36  8
38  42  8
39  43  8
42  44  8
43  44  8

$$$$
