122527275
     RDKit          2D

 40 43  0  0  1  0  0  0  0  0999 V2000
    5.3872    1.4527    0.0000 P   0  0  0  0  0  0  0  0  0  0  0  0
    8.9285   -1.9725    0.0000 F   0  0  0  0  0  0  0  0  0  0  0  0
    6.3905   -1.4681    0.0000 O   0  0  0  0  0  0  0  0  0  0  0  0
    8.7402   -0.3844    0.0000 O   0  0  0  0  0  0  0  0  0  0  0  0
    5.6945    0.5011    0.0000 O   0  0  0  0  0  0  0  0  0  0  0  0
    4.4356    1.1453    0.0000 O   0  0  0  0  0  0  0  0  0  0  0  0
    6.3387    1.7600    0.0000 O   0  0  0  0  0  0  0  0  0  0  0  0
    6.1132    4.8398    0.0000 O   0  0  0  0  0  0  0  0  0  0  0  0
    4.4650    4.3074    0.0000 O   0  0  0  0  0  0  0  0  0  0  0  0
    6.6662   -3.2287    0.0000 N   0  0  0  0  0  0  0  0  0  0  0  0
    6.6662   -4.8381    0.0000 N   0  0  0  0  0  0  0  0  0  0  0  0
    4.8540   -3.0334    0.0000 N   0  0  0  0  0  0  0  0  0  0  0  0
    5.0798    2.4043    0.0000 N   0  0  0  0  0  0  0  0  0  0  0  0
    3.9880   -4.5334    0.0000 N   0  0  0  0  0  0  0  0  0  0  0  0
    4.8540   -6.0334    0.0000 N   0  0  0  0  0  0  0  0  0  0  0  0
    3.1219   -3.0334    0.0000 N   0  0  0  0  0  0  0  0  0  0  0  0
    7.9285   -1.9708    0.0000 C   0  0  0  0  0  0  0  0  0  0  0  0
    7.9302   -0.9708    0.0000 C   0  0  0  0  0  0  0  0  0  0  0  0
    6.9769   -2.2781    0.0000 C   0  0  0  0  0  0  0  0  0  0  0  0
    6.9797   -0.6601    0.0000 C   0  0  0  0  0  0  0  0  0  0  0  0
    8.2358   -2.9224    0.0000 C   0  0  0  0  0  0  0  0  0  0  0  0
    6.6723    0.2915    0.0000 C   0  0  0  0  0  0  0  0  0  0  0  0
    5.7200   -3.5334    0.0000 C   0  0  0  0  0  0  0  0  0  0  0  0
    7.2498   -4.0334    0.0000 C   0  0  0  0  0  0  0  0  0  0  0  0
    5.7200   -4.5334    0.0000 C   0  0  0  0  0  0  0  0  0  0  0  0
    4.8540   -5.0334    0.0000 C   0  0  0  0  0  0  0  0  0  0  0  0
    3.9880   -3.5334    0.0000 C   0  0  0  0  0  0  0  0  0  0  0  0
    5.7502    3.1463    0.0000 C   0  0  0  0  0  0  0  0  0  0  0  0
    6.7280    2.9366    0.0000 C   0  0  0  0  0  0  0  0  0  0  0  0
    3.6936    1.8157    0.0000 C   0  0  0  0  0  0  0  0  0  0  0  0
    5.4428    4.0978    0.0000 C   0  0  0  0  0  0  0  0  0  0  0  0
    3.9880   -6.5334    0.0000 C   0  0  0  0  0  0  0  0  0  0  0  0
    2.7420    1.5083    0.0000 C   0  0  0  0  0  0  0  0  0  0  0  0
    3.9032    2.7935    0.0000 C   0  0  0  0  0  0  0  0  0  0  0  0
    5.8059    5.7914    0.0000 C   0  0  0  0  0  0  0  0  0  0  0  0
    2.0000    2.1788    0.0000 C   0  0  0  0  0  0  0  0  0  0  0  0
    3.1612    3.4639    0.0000 C   0  0  0  0  0  0  0  0  0  0  0  0
    2.2096    3.1566    0.0000 C   0  0  0  0  0  0  0  0  0  0  0  0
    6.4763    6.5334    0.0000 C   0  0  0  0  0  0  0  0  0  0  0  0
    4.8281    6.0010    0.0000 C   0  0  0  0  0  0  0  0  0  0  0  0
  1  5  1  0
  1  6  1  0
  1  7  2  0
  1 13  1  6
 17  2  1  0
  3 19  1  0
  3 20  1  0
 18  4  1  1
  5 22  1  0
  6 30  1  0
  8 31  1  0
  8 35  1  0
  9 31  2  0
 19 10  1  6
 10 23  1  0
 10 24  1  0
 11 24  2  0
 11 25  1  0
 12 23  1  0
 12 27  2  0
 28 13  1  0
 14 26  2  0
 14 27  1  0
 15 26  1  0
 15 32  1  0
 16 27  1  0
 17 18  1  0
 17 19  1  0
 17 21  1  6
 18 20  1  0
 20 22  1  6
 23 25  2  0
 25 26  1  0
 28 29  1  6
 28 31  1  0
 30 33  2  0
 30 34  1  0
 33 36  1  0
 34 37  2  0
 35 39  1  0
 35 40  1  0
 36 38  2  0
 37 38  1  0
M  END
>  <PUBCHEM_COMPOUND_CID>  (1) 
122527275

>  <PUBCHEM_COMPOUND_CANONICALIZED>  (1) 
1

>  <PUBCHEM_CACTVS_COMPLEXITY>  (1) 
919

>  <PUBCHEM_CACTVS_HBOND_ACCEPTOR>  (1) 
14

>  <PUBCHEM_CACTVS_HBOND_DONOR>  (1) 
4

>  <PUBCHEM_CACTVS_ROTATABLE_BOND>  (1) 
12

>  <PUBCHEM_CACTVS_SUBSKEYS>  (1) 
AAADcfB7uQIAAAAAAAAAAAAAAAAAAWJAAAA8QAAAAAAAAFgB/AAAHwAQiCAADDzhlwY3/r/MFxCoQSbzbICCgC0xMKAJ2KGuXJiLfiLA2VKfdAgv0BPLiCewcAIMAAAAAAAAAAAAAAAAAAAAAAAAAAAAAA==

>  <PUBCHEM_IUPAC_OPENEYE_NAME>  (1) 
isopropyl (2S)-2-[[[(2R,3R,4R,5R)-5-[2-amino-6-(methylamino)purin-9-yl]-4-fluoro-3-hydroxy-4-methyl-tetrahydrofuran-2-yl]methoxy-phenoxy-phosphoryl]amino]propanoate

>  <PUBCHEM_IUPAC_CAS_NAME>  (1) 
(2S)-2-[[[(2R,3R,4R,5R)-5-[2-amino-6-(methylamino)-9-purinyl]-4-fluoro-3-hydroxy-4-methyl-2-oxolanyl]methoxy-phenoxyphosphoryl]amino]propanoic acid propan-2-yl ester

>  <PUBCHEM_IUPAC_NAME_MARKUP>  (1) 
propan-2-yl (2<I>S</I>)-2-[[[(2<I>R</I>,3<I>R</I>,4<I>R</I>,5<I>R</I>)-5-[2-amino-6-(methylamino)purin-9-yl]-4-fluoro-3-hydroxy-4-methyloxolan-2-yl]methoxy-phenoxyphosphoryl]amino]propanoate

>  <PUBCHEM_IUPAC_NAME>  (1) 
propan-2-yl (2S)-2-[[[(2R,3R,4R,5R)-5-[2-amino-6-(methylamino)purin-9-yl]-4-fluoro-3-hydroxy-4-methyloxolan-2-yl]methoxy-phenoxyphosphoryl]amino]propanoate

>  <PUBCHEM_IUPAC_SYSTEMATIC_NAME>  (1) 
propan-2-yl (2S)-2-[[[(2R,3R,4R,5R)-5-[2-azanyl-6-(methylamino)purin-9-yl]-4-fluoranyl-4-methyl-3-oxidanyl-oxolan-2-yl]methoxy-phenoxy-phosphoryl]amino]propanoate

>  <PUBCHEM_IUPAC_TRADITIONAL_NAME>  (1) 
(2S)-2-[[[(2R,3R,4R,5R)-5-[2-amino-6-(methylamino)purin-9-yl]-4-fluoro-3-hydroxy-4-methyl-tetrahydrofuran-2-yl]methoxy-phenoxy-phosphoryl]amino]propionic acid isopropyl ester

>  <PUBCHEM_IUPAC_INCHI>  (1) 
InChI=1S/C24H33FN7O7P/c1-13(2)37-21(34)14(3)31-40(35,39-15-9-7-6-8-10-15)36-11-16-18(33)24(4,25)22(38-16)32-12-28-17-19(27-5)29-23(26)30-20(17)32/h6-10,12-14,16,18,22,33H,11H2,1-5H3,(H,31,35)(H3,26,27,29,30)/t14-,16+,18+,22+,24+,40-/m0/s1

>  <PUBCHEM_IUPAC_INCHIKEY>  (1) 
OISLSHLAXHALQZ-LZEIJKKFSA-N

>  <PUBCHEM_XLOGP3_AA>  (1) 
1.7

>  <PUBCHEM_EXACT_MASS>  (1) 
581.21631158

>  <PUBCHEM_MOLECULAR_FORMULA>  (1) 
C24H33FN7O7P

>  <PUBCHEM_MOLECULAR_WEIGHT>  (1) 
581.5

>  <PUBCHEM_OPENEYE_CAN_SMILES>  (1) 
CC(C)OC(=O)C(C)NP(=O)(OCC1C(C(C(O1)N2C=NC3=C(N=C(N=C32)N)NC)(C)F)O)OC4=CC=CC=C4

>  <PUBCHEM_OPENEYE_ISO_SMILES>  (1) 
C[C@@H](C(=O)OC(C)C)N[P@](=O)(OC[C@@H]1[C@H]([C@@]([C@@H](O1)N2C=NC3=C(N=C(N=C32)N)NC)(C)F)O)OC4=CC=CC=C4

>  <PUBCHEM_CACTVS_TPSA>  (1) 
185

>  <PUBCHEM_MONOISOTOPIC_WEIGHT>  (1) 
581.21631158

>  <PUBCHEM_TOTAL_CHARGE>  (1) 
0

>  <PUBCHEM_HEAVY_ATOM_COUNT>  (1) 
40

>  <PUBCHEM_ATOM_DEF_STEREO_COUNT>  (1) 
6

>  <PUBCHEM_ATOM_UDEF_STEREO_COUNT>  (1) 
0

>  <PUBCHEM_BOND_DEF_STEREO_COUNT>  (1) 
0

>  <PUBCHEM_BOND_UDEF_STEREO_COUNT>  (1) 
0

>  <PUBCHEM_ISOTOPIC_ATOM_COUNT>  (1) 
0

>  <PUBCHEM_COMPONENT_COUNT>  (1) 
1

>  <PUBCHEM_CACTVS_TAUTO_COUNT>  (1) 
-1

>  <PUBCHEM_COORDINATE_TYPE>  (1) 
1
5
255

>  <PUBCHEM_BONDANNOTATIONS>  (1) 
1  5  6
19  10  6
10  23  8
10  24  8
11  24  8
11  25  8
12  23  8
12  27  8
28  13  6
14  26  8
14  27  8
17  2  5
20  22  6
23  25  8
25  26  8
30  33  8
30  34  8
33  36  8
34  37  8
36  38  8
37  38  8
18  4  5

$$$$
