SV_J31_0008
  -OEChem-07172407062D

185191  0     1  0  0  0  0  0999 V2000
   14.4842    4.0404    0.0000 O   0  0  0  0  0  0  0  0  0  0  0  0
   15.4948    3.1272    0.0000 O   0  0  0  0  0  0  0  0  0  0  0  0
   12.7913    7.2238    0.0000 O   0  0  0  0  0  0  0  0  0  0  0  0
    9.5451    5.6546    0.0000 O   0  0  0  0  0  0  0  0  0  0  0  0
   18.8331    1.7648    0.0000 O   0  0  0  0  0  0  0  0  0  0  0  0
    7.8523    8.8380    0.0000 O   0  0  0  0  0  0  0  0  0  0  0  0
    3.8452   13.3038    0.0000 O   0  0  0  0  0  0  0  0  0  0  0  0
    0.1258   12.2933    0.0000 O   0  0  0  0  0  0  0  0  0  0  0  0
    7.1844    9.5823    0.0000 O   0  0  0  0  0  0  0  0  0  0  0  0
    4.8237   13.5101    0.0000 O   0  0  0  0  0  0  0  0  0  0  0  0
    5.4916   12.7658    0.0000 O   0  0  0  0  0  0  0  0  0  0  0  0
    5.5381   10.1204    0.0000 O   0  0  0  0  0  0  0  0  0  0  0  0
   11.3626   14.0031    0.0000 O   0  0  0  0  0  0  0  0  0  0  0  0
   10.2826   22.4948    0.0000 O   0  0  0  0  0  0  0  0  0  0  0  0
    9.4165   20.9948    0.0000 O   0  0  0  0  0  0  0  0  0  0  0  0
   15.7734    5.1971    0.0000 N   0  0  0  0  0  0  0  0  0  0  0  0
   13.1485    5.5290    0.0000 N   0  0  0  0  0  0  0  0  0  0  0  0
   17.2171    2.9432    0.0000 N   0  0  0  0  0  0  0  0  0  0  0  0
   10.8343    6.8114    0.0000 N   0  0  0  0  0  0  0  0  0  0  0  0
   16.7053    8.0487    0.0000 N   0  0  0  0  0  0  0  0  0  0  0  0
    9.4986    8.3000    0.0000 N   0  0  0  0  0  0  0  0  0  0  0  0
   17.8126    0.3653    0.0000 N   0  0  0  0  0  0  0  0  0  0  0  0
    7.8988    4.5832    0.0000 N   0  0  0  0  0  0  0  0  0  0  0  0
    8.4736   10.7391    0.0000 N   0  0  0  0  0  0  0  0  0  0  0  0
    1.7905   12.9291    0.0000 N   0  0  0  0  0  0  0  0  0  0  0  0
    3.4880   14.9987    0.0000 N   0  0  0  0  0  0  0  0  0  0  0  0
    6.1129   14.6668    0.0000 N   0  0  0  0  0  0  0  0  0  0  0  0
   17.9945    9.2054    0.0000 N   0  0  0  0  0  0  0  0  0  0  0  0
   16.3482    9.7435    0.0000 N   0  0  0  0  0  0  0  0  0  0  0  0
    7.1379   12.2277    0.0000 N   0  0  0  0  0  0  0  0  0  0  0  0
    9.0204   16.3780    0.0000 N   0  0  0  0  0  0  0  0  0  0  0  0
    4.3190   17.8775    0.0000 N   0  0  0  0  0  0  0  0  0  0  0  0
    2.7095   17.7111    0.0000 N   0  0  0  0  0  0  0  0  0  0  0  0
   16.5153    4.5267    0.0000 C   0  0  1  0  0  0  0  0  0  0  0  0
   17.3822    5.0252    0.0000 C   0  0  0  0  0  0  0  0  0  0  0  0
   17.1760    6.0037    0.0000 C   0  0  0  0  0  0  0  0  0  0  0  0
   16.1817    6.1099    0.0000 C   0  0  0  0  0  0  0  0  0  0  0  0
   14.7949    4.9909    0.0000 C   0  0  0  0  0  0  0  0  0  0  0  0
   14.1270    5.7352    0.0000 C   0  0  2  0  0  0  0  0  0  0  0  0
   16.4091    3.5323    0.0000 C   0  0  0  0  0  0  0  0  0  0  0  0
   14.4377    6.6857    0.0000 C   0  0  0  0  0  0  0  0  0  0  0  0
   15.4162    6.8919    0.0000 C   0  0  0  0  0  0  0  0  0  0  0  0
   11.5022    6.0670    0.0000 C   0  0  2  0  0  0  0  0  0  0  0  0
   12.4807    6.2733    0.0000 C   0  0  0  0  0  0  0  0  0  0  0  0
   11.1915    5.1165    0.0000 C   0  0  0  0  0  0  0  0  0  0  0  0
   11.3977    4.1380    0.0000 C   0  0  0  0  0  0  0  0  0  0  0  0
   15.7268    7.8424    0.0000 C   0  0  0  0  0  0  0  0  0  0  0  0
   17.1108    1.9488    0.0000 C   0  0  0  0  0  0  0  0  0  0  0  0
    9.1880    7.3494    0.0000 C   0  0  1  0  0  0  0  0  0  0  0  0
    9.8558    6.6051    0.0000 C   0  0  0  0  0  0  0  0  0  0  0  0
   10.6534    3.4702    0.0000 C   0  0  0  0  0  0  0  0  0  0  0  0
   12.3482    3.8274    0.0000 C   0  0  0  0  0  0  0  0  0  0  0  0
   17.9188    1.3596    0.0000 C   0  0  0  0  0  0  0  0  0  0  0  0
    8.2094    7.1432    0.0000 C   0  0  0  0  0  0  0  0  0  0  0  0
    7.8988    6.1927    0.0000 C   0  0  0  0  0  0  0  0  0  0  0  0
    9.1414    9.9948    0.0000 C   0  0  2  0  0  0  0  0  0  0  0  0
    8.8308    9.0442    0.0000 C   0  0  0  0  0  0  0  0  0  0  0  0
    6.9526    5.8880    0.0000 C   0  0  0  0  0  0  0  0  0  0  0  0
   17.0160    8.9992    0.0000 C   0  0  0  0  0  0  0  0  0  0  0  0
    8.4824    5.3880    0.0000 C   0  0  0  0  0  0  0  0  0  0  0  0
    2.1989   13.8419    0.0000 C   0  0  1  0  0  0  0  0  0  0  0  0
    6.9526    4.8880    0.0000 C   0  0  0  0  0  0  0  0  0  0  0  0
   10.1199   10.2010    0.0000 C   0  0  0  0  0  0  0  0  0  0  0  0
    1.4569   14.5123    0.0000 C   0  0  0  0  0  0  0  0  0  0  0  0
    6.7807   13.9225    0.0000 C   0  0  1  0  0  0  0  0  0  0  0  0
    4.4665   15.2049    0.0000 C   0  0  1  0  0  0  0  0  0  0  0  0
    0.5900   14.0138    0.0000 C   0  0  0  0  0  0  0  0  0  0  0  0
    6.0866    6.3880    0.0000 C   0  0  0  0  0  0  0  0  0  0  0  0
    7.7592   14.1287    0.0000 C   0  0  0  0  0  0  0  0  0  0  0  0
    3.1774   14.0481    0.0000 C   0  0  0  0  0  0  0  0  0  0  0  0
    6.8272   11.2772    0.0000 C   0  0  2  0  0  0  0  0  0  0  0  0
    0.7962   13.0353    0.0000 C   0  0  0  0  0  0  0  0  0  0  0  0
    7.4951   10.5329    0.0000 C   0  0  0  0  0  0  0  0  0  0  0  0
    4.7772   16.1554    0.0000 C   0  0  0  0  0  0  0  0  0  0  0  0
    6.0866    4.3880    0.0000 C   0  0  0  0  0  0  0  0  0  0  0  0
    5.1344   14.4606    0.0000 C   0  0  0  0  0  0  0  0  0  0  0  0
   10.4306   11.1515    0.0000 C   0  0  0  0  0  0  0  0  0  0  0  0
    8.0699   15.0792    0.0000 C   0  0  0  0  0  0  0  0  0  0  0  0
    6.4701   12.9720    0.0000 C   0  0  0  0  0  0  0  0  0  0  0  0
    5.2205    5.8880    0.0000 C   0  0  0  0  0  0  0  0  0  0  0  0
    7.4863   15.8840    0.0000 C   0  0  0  0  0  0  0  0  0  0  0  0
    5.2205    4.8880    0.0000 C   0  0  0  0  0  0  0  0  0  0  0  0
    5.8487   11.0709    0.0000 C   0  0  0  0  0  0  0  0  0  0  0  0
    4.1094   16.8997    0.0000 C   0  0  0  0  0  0  0  0  0  0  0  0
    9.0161   15.3840    0.0000 C   0  0  0  0  0  0  0  0  0  0  0  0
    8.0769   16.6909    0.0000 C   0  0  0  0  0  0  0  0  0  0  0  0
    9.7628   11.8958    0.0000 C   0  0  0  0  0  0  0  0  0  0  0  0
   11.4091   11.3577    0.0000 C   0  0  0  0  0  0  0  0  0  0  0  0
    6.4921   15.9919    0.0000 C   0  0  0  0  0  0  0  0  0  0  0  0
    7.6733   17.6059    0.0000 C   0  0  0  0  0  0  0  0  0  0  0  0
    3.1146   16.7969    0.0000 C   0  0  0  0  0  0  0  0  0  0  0  0
   10.0734   12.8463    0.0000 C   0  0  0  0  0  0  0  0  0  0  0  0
   11.7198   12.3082    0.0000 C   0  0  0  0  0  0  0  0  0  0  0  0
    6.0886   16.9069    0.0000 C   0  0  0  0  0  0  0  0  0  0  0  0
   11.0519   13.0526    0.0000 C   0  0  0  0  0  0  0  0  0  0  0  0
    6.6791   17.7139    0.0000 C   0  0  0  0  0  0  0  0  0  0  0  0
    3.4538   18.3790    0.0000 C   0  0  0  0  0  0  0  0  0  0  0  0
    8.5505   22.4948    0.0000 C   0  0  0  0  0  0  0  0  0  0  0  0
    9.4165   21.9948    0.0000 C   0  0  0  0  0  0  0  0  0  0  0  0
   15.9361    4.3055    0.0000 H   0  0  0  0  0  0  0  0  0  0  0  0
   17.6334    4.4584    0.0000 H   0  0  0  0  0  0  0  0  0  0  0  0
   17.9722    5.2158    0.0000 H   0  0  0  0  0  0  0  0  0  0  0  0
   17.7927    6.0674    0.0000 H   0  0  0  0  0  0  0  0  0  0  0  0
   17.1771    6.6237    0.0000 H   0  0  0  0  0  0  0  0  0  0  0  0
   16.3116    6.7162    0.0000 H   0  0  0  0  0  0  0  0  0  0  0  0
   15.5924    6.3026    0.0000 H   0  0  0  0  0  0  0  0  0  0  0  0
   13.7129    6.1966    0.0000 H   0  0  0  0  0  0  0  0  0  0  0  0
   14.4171    7.3054    0.0000 H   0  0  0  0  0  0  0  0  0  0  0  0
   13.8239    6.7730    0.0000 H   0  0  0  0  0  0  0  0  0  0  0  0
   12.9559    4.9396    0.0000 H   0  0  0  0  0  0  0  0  0  0  0  0
   15.4367    6.2723    0.0000 H   0  0  0  0  0  0  0  0  0  0  0  0
   16.0300    6.8046    0.0000 H   0  0  0  0  0  0  0  0  0  0  0  0
   17.7839    3.1944    0.0000 H   0  0  0  0  0  0  0  0  0  0  0  0
   11.6948    6.6564    0.0000 H   0  0  0  0  0  0  0  0  0  0  0  0
   10.7036    5.4991    0.0000 H   0  0  0  0  0  0  0  0  0  0  0  0
   11.8106    5.0830    0.0000 H   0  0  0  0  0  0  0  0  0  0  0  0
   11.5256    3.5313    0.0000 H   0  0  0  0  0  0  0  0  0  0  0  0
   15.7063    8.4621    0.0000 H   0  0  0  0  0  0  0  0  0  0  0  0
   15.1130    7.9298    0.0000 H   0  0  0  0  0  0  0  0  0  0  0  0
   16.5152    2.1207    0.0000 H   0  0  0  0  0  0  0  0  0  0  0  0
   16.8381    1.3920    0.0000 H   0  0  0  0  0  0  0  0  0  0  0  0
   11.0269    7.4007    0.0000 H   0  0  0  0  0  0  0  0  0  0  0  0
    8.7739    7.8109    0.0000 H   0  0  0  0  0  0  0  0  0  0  0  0
   10.2393    3.9316    0.0000 H   0  0  0  0  0  0  0  0  0  0  0  0
   10.1919    3.0561    0.0000 H   0  0  0  0  0  0  0  0  0  0  0  0
   11.0675    3.0087    0.0000 H   0  0  0  0  0  0  0  0  0  0  0  0
   12.1556    3.2380    0.0000 H   0  0  0  0  0  0  0  0  0  0  0  0
   12.9376    3.6347    0.0000 H   0  0  0  0  0  0  0  0  0  0  0  0
   12.5408    4.4167    0.0000 H   0  0  0  0  0  0  0  0  0  0  0  0
    8.1889    7.7629    0.0000 H   0  0  0  0  0  0  0  0  0  0  0  0
    7.5956    7.2306    0.0000 H   0  0  0  0  0  0  0  0  0  0  0  0
   10.1053    8.4278    0.0000 H   0  0  0  0  0  0  0  0  0  0  0  0
    9.3340   10.5841    0.0000 H   0  0  0  0  0  0  0  0  0  0  0  0
   18.3136    0.0000    0.0000 H   0  0  0  0  0  0  0  0  0  0  0  0
   17.2458    0.1141    0.0000 H   0  0  0  0  0  0  0  0  0  0  0  0
    9.1024    5.3880    0.0000 H   0  0  0  0  0  0  0  0  0  0  0  0
    2.5882   13.3594    0.0000 H   0  0  0  0  0  0  0  0  0  0  0  0
   10.1405    9.5813    0.0000 H   0  0  0  0  0  0  0  0  0  0  0  0
   10.7338   10.1136    0.0000 H   0  0  0  0  0  0  0  0  0  0  0  0
    1.9183   14.9264    0.0000 H   0  0  0  0  0  0  0  0  0  0  0  0
    1.0933   15.0146    0.0000 H   0  0  0  0  0  0  0  0  0  0  0  0
    8.0914    3.9939    0.0000 H   0  0  0  0  0  0  0  0  0  0  0  0
    6.1741   13.7946    0.0000 H   0  0  0  0  0  0  0  0  0  0  0  0
    4.2739   14.6156    0.0000 H   0  0  0  0  0  0  0  0  0  0  0  0
    8.6662   11.3284    0.0000 H   0  0  0  0  0  0  0  0  0  0  0  0
    0.3388   14.5807    0.0000 H   0  0  0  0  0  0  0  0  0  0  0  0
    0.0000   13.8233    0.0000 H   0  0  0  0  0  0  0  0  0  0  0  0
    7.7798   13.5091    0.0000 H   0  0  0  0  0  0  0  0  0  0  0  0
    8.3730   14.0414    0.0000 H   0  0  0  0  0  0  0  0  0  0  0  0
    6.0866    7.0080    0.0000 H   0  0  0  0  0  0  0  0  0  0  0  0
    2.0996   12.3916    0.0000 H   0  0  0  0  0  0  0  0  0  0  0  0
    6.4132   11.7386    0.0000 H   0  0  0  0  0  0  0  0  0  0  0  0
    3.0740   15.4601    0.0000 H   0  0  0  0  0  0  0  0  0  0  0  0
    5.3241   15.8634    0.0000 H   0  0  0  0  0  0  0  0  0  0  0  0
    5.1598   16.6433    0.0000 H   0  0  0  0  0  0  0  0  0  0  0  0
    6.3055   15.2561    0.0000 H   0  0  0  0  0  0  0  0  0  0  0  0
    6.0866    3.7680    0.0000 H   0  0  0  0  0  0  0  0  0  0  0  0
    7.7446   12.3555    0.0000 H   0  0  0  0  0  0  0  0  0  0  0  0
   18.1871    9.7947    0.0000 H   0  0  0  0  0  0  0  0  0  0  0  0
   18.4086    8.7439    0.0000 H   0  0  0  0  0  0  0  0  0  0  0  0
   16.5408   10.3328    0.0000 H   0  0  0  0  0  0  0  0  0  0  0  0
   15.7415    9.6156    0.0000 H   0  0  0  0  0  0  0  0  0  0  0  0
    4.6836    6.1980    0.0000 H   0  0  0  0  0  0  0  0  0  0  0  0
    4.6836    4.5780    0.0000 H   0  0  0  0  0  0  0  0  0  0  0  0
    5.8282   11.6906    0.0000 H   0  0  0  0  0  0  0  0  0  0  0  0
    5.2349   11.1583    0.0000 H   0  0  0  0  0  0  0  0  0  0  0  0
    9.5164   15.0178    0.0000 H   0  0  0  0  0  0  0  0  0  0  0  0
    9.1561   11.7680    0.0000 H   0  0  0  0  0  0  0  0  0  0  0  0
   11.8232   10.8963    0.0000 H   0  0  0  0  0  0  0  0  0  0  0  0
    9.5239   16.7399    0.0000 H   0  0  0  0  0  0  0  0  0  0  0  0
    6.1260   15.4916    0.0000 H   0  0  0  0  0  0  0  0  0  0  0  0
    8.0395   18.1062    0.0000 H   0  0  0  0  0  0  0  0  0  0  0  0
    4.8858   18.1287    0.0000 H   0  0  0  0  0  0  0  0  0  0  0  0
    2.8037   16.2605    0.0000 H   0  0  0  0  0  0  0  0  0  0  0  0
    9.6594   13.3078    0.0000 H   0  0  0  0  0  0  0  0  0  0  0  0
   12.3264   12.4361    0.0000 H   0  0  0  0  0  0  0  0  0  0  0  0
    5.4722   16.9738    0.0000 H   0  0  0  0  0  0  0  0  0  0  0  0
    6.4289   18.2811    0.0000 H   0  0  0  0  0  0  0  0  0  0  0  0
    5.9521    9.6590    0.0000 H   0  0  0  0  0  0  0  0  0  0  0  0
    3.3901   18.9957    0.0000 H   0  0  0  0  0  0  0  0  0  0  0  0
   11.9693   14.1309    0.0000 H   0  0  0  0  0  0  0  0  0  0  0  0
    8.8605   23.0317    0.0000 H   0  0  0  0  0  0  0  0  0  0  0  0
    8.0136   22.8048    0.0000 H   0  0  0  0  0  0  0  0  0  0  0  0
    8.2405   21.9579    0.0000 H   0  0  0  0  0  0  0  0  0  0  0  0
   10.8195   22.1848    0.0000 H   0  0  0  0  0  0  0  0  0  0  0  0
  1 38  2  0  0  0  0
  2 40  2  0  0  0  0
  3 44  2  0  0  0  0
  4 50  2  0  0  0  0
  5 53  2  0  0  0  0
  6 57  2  0  0  0  0
  7 70  2  0  0  0  0
  8 72  2  0  0  0  0
  9 73  2  0  0  0  0
 10 76  2  0  0  0  0
 11 79  2  0  0  0  0
 12 83  1  0  0  0  0
 12179  1  0  0  0  0
 13 95  1  0  0  0  0
 13181  1  0  0  0  0
 14 99  1  0  0  0  0
 14185  1  0  0  0  0
 15 99  2  0  0  0  0
 16 34  1  0  0  0  0
 16 37  1  0  0  0  0
 16 38  1  0  0  0  0
 39 17  1  1  0  0  0
 17 44  1  0  0  0  0
 17110  1  0  0  0  0
 18 40  1  0  0  0  0
 18 48  1  0  0  0  0
 18113  1  0  0  0  0
 43 19  1  6  0  0  0
 19 50  1  0  0  0  0
 19122  1  0  0  0  0
 20 47  1  0  0  0  0
 20 59  2  0  0  0  0
 49 21  1  1  0  0  0
 21 57  1  0  0  0  0
 21132  1  0  0  0  0
 22 53  1  0  0  0  0
 22134  1  0  0  0  0
 22135  1  0  0  0  0
 23 60  1  0  0  0  0
 23 62  1  0  0  0  0
 23142  1  0  0  0  0
 56 24  1  1  0  0  0
 24 73  1  0  0  0  0
 24145  1  0  0  0  0
 25 61  1  0  0  0  0
 25 72  1  0  0  0  0
 25151  1  0  0  0  0
 66 26  1  1  0  0  0
 26 70  1  0  0  0  0
 26153  1  0  0  0  0
 65 27  1  1  0  0  0
 27 76  1  0  0  0  0
 27156  1  0  0  0  0
 28 59  1  0  0  0  0
 28159  1  0  0  0  0
 28160  1  0  0  0  0
 29 59  1  0  0  0  0
 29161  1  0  0  0  0
 29162  1  0  0  0  0
 71 30  1  6  0  0  0
 30 79  1  0  0  0  0
 30158  1  0  0  0  0
 31 85  1  0  0  0  0
 31 86  1  0  0  0  0
 31170  1  0  0  0  0
 32 84  1  0  0  0  0
 32 97  1  0  0  0  0
 32173  1  0  0  0  0
 33 91  1  0  0  0  0
 33 97  2  0  0  0  0
 34 35  1  0  0  0  0
 34 40  1  1  0  0  0
 34100  1  0  0  0  0
 35 36  1  0  0  0  0
 35101  1  0  0  0  0
 35102  1  0  0  0  0
 36 37  1  0  0  0  0
 36103  1  0  0  0  0
 36104  1  0  0  0  0
 37105  1  0  0  0  0
 37106  1  0  0  0  0
 38 39  1  0  0  0  0
 39 41  1  0  0  0  0
 39107  1  0  0  0  0
 41 42  1  0  0  0  0
 41108  1  0  0  0  0
 41109  1  0  0  0  0
 42 47  1  0  0  0  0
 42111  1  0  0  0  0
 42112  1  0  0  0  0
 43 44  1  0  0  0  0
 43 45  1  0  0  0  0
 43114  1  0  0  0  0
 45 46  1  0  0  0  0
 45115  1  0  0  0  0
 45116  1  0  0  0  0
 46 51  1  0  0  0  0
 46 52  1  0  0  0  0
 46117  1  0  0  0  0
 47118  1  0  0  0  0
 47119  1  0  0  0  0
 48 53  1  0  0  0  0
 48120  1  0  0  0  0
 48121  1  0  0  0  0
 49 50  1  0  0  0  0
 49 54  1  0  0  0  0
 49123  1  0  0  0  0
 51124  1  0  0  0  0
 51125  1  0  0  0  0
 51126  1  0  0  0  0
 52127  1  0  0  0  0
 52128  1  0  0  0  0
 52129  1  0  0  0  0
 54 55  1  0  0  0  0
 54130  1  0  0  0  0
 54131  1  0  0  0  0
 55 58  1  0  0  0  0
 55 60  2  0  0  0  0
 56 57  1  0  0  0  0
 56 63  1  0  0  0  0
 56133  1  0  0  0  0
 58 62  1  0  0  0  0
 58 68  2  0  0  0  0
 60136  1  0  0  0  0
 61 64  1  0  0  0  0
 61 70  1  1  0  0  0
 61137  1  0  0  0  0
 62 75  2  0  0  0  0
 63 77  1  0  0  0  0
 63138  1  0  0  0  0
 63139  1  0  0  0  0
 64 67  1  0  0  0  0
 64140  1  0  0  0  0
 64141  1  0  0  0  0
 65 69  1  0  0  0  0
 65 79  1  0  0  0  0
 65143  1  0  0  0  0
 66 74  1  0  0  0  0
 66 76  1  0  0  0  0
 66144  1  0  0  0  0
 67 72  1  0  0  0  0
 67146  1  0  0  0  0
 67147  1  0  0  0  0
 68 80  1  0  0  0  0
 68150  1  0  0  0  0
 69 78  1  0  0  0  0
 69148  1  0  0  0  0
 69149  1  0  0  0  0
 71 73  1  0  0  0  0
 71 83  1  0  0  0  0
 71152  1  0  0  0  0
 74 84  1  0  0  0  0
 74154  1  0  0  0  0
 74155  1  0  0  0  0
 75 82  1  0  0  0  0
 75157  1  0  0  0  0
 77 87  2  0  0  0  0
 77 88  1  0  0  0  0
 78 81  1  0  0  0  0
 78 85  2  0  0  0  0
 80 82  2  0  0  0  0
 80163  1  0  0  0  0
 81 86  1  0  0  0  0
 81 89  2  0  0  0  0
 82164  1  0  0  0  0
 83165  1  0  0  0  0
 83166  1  0  0  0  0
 84 91  2  0  0  0  0
 85167  1  0  0  0  0
 86 90  2  0  0  0  0
 87 92  1  0  0  0  0
 87168  1  0  0  0  0
 88 93  2  0  0  0  0
 88169  1  0  0  0  0
 89 94  1  0  0  0  0
 89171  1  0  0  0  0
 90 96  1  0  0  0  0
 90172  1  0  0  0  0
 91174  1  0  0  0  0
 92 95  2  0  0  0  0
 92175  1  0  0  0  0
 93 95  1  0  0  0  0
 93176  1  0  0  0  0
 94 96  2  0  0  0  0
 94177  1  0  0  0  0
 96178  1  0  0  0  0
 97180  1  0  0  0  0
 98 99  1  0  0  0  0
 98182  1  0  0  0  0
 98183  1  0  0  0  0
 98184  1  0  0  0  0
M  END
> <PUBCHEM_COMPOUND_CID>
25080282

> <PUBCHEM_COMPOUND_CANONICALIZED>
1

> <PUBCHEM_CACTVS_COMPLEXITY>
2750

> <PUBCHEM_CACTVS_HBOND_ACCEPTOR>
17

> <PUBCHEM_CACTVS_HBOND_DONOR>
18

> <PUBCHEM_CACTVS_ROTATABLE_BOND>
33

> <PUBCHEM_CACTVS_SUBSKEYS>
AAADcfB//AAAAAAAAAAAAAAAAAAAAWLFixYwYMAAAAAAAFgB/gAAHgAQCAAADSzhngY/3vfJkgCoAzX3fACCgC2xMqAJ2aG+fJiKfvbC2bOUcAhu9hPY2Cecy+COoAAAAAACAABAAAAAAAQAAAAAAAAAAA==

> <PUBCHEM_IUPAC_OPENEYE_NAME>
acetic acid;(2S)-N-[(1S)-2-[[(1S)-2-[[(1S)-2-[[(1S)-2-[[(1R)-2-[[(1S)-1-[[(1S)-1-[(2S)-2-[(2-amino-2-oxo-ethyl)carbamoyl]pyrrolidine-1-carbonyl]-4-guanidino-butyl]carbamoyl]-3-methyl-butyl]amino]-1-(1H-indol-3-ylmethyl)-2-oxo-ethyl]amino]-1-[(4-hydroxyphenyl)methyl]-2-oxo-ethyl]amino]-1-(hydroxymethyl)-2-oxo-ethyl]amino]-1-(1H-indol-3-ylmethyl)-2-oxo-ethyl]amino]-1-(1H-imidazol-5-ylmethyl)-2-oxo-ethyl]-5-oxo-pyrrolidine-2-carboxamide

> <PUBCHEM_IUPAC_CAS_NAME>
acetic acid;(2S)-N-[(2S)-1-[[(2S)-1-[[(2S)-1-[[(2S)-1-[[(2R)-1-[[(2S)-1-[[(2S)-1-[(2S)-2-[[(2-amino-2-oxoethyl)amino]-oxomethyl]-1-pyrrolidinyl]-5-(diaminomethylideneamino)-1-oxopentan-2-yl]amino]-4-methyl-1-oxopentan-2-yl]amino]-3-(1H-indol-3-yl)-1-oxopropan-2-yl]amino]-3-(4-hydroxyphenyl)-1-oxopropan-2-yl]amino]-3-hydroxy-1-oxopropan-2-yl]amino]-3-(1H-indol-3-yl)-1-oxopropan-2-yl]amino]-3-(1H-imidazol-5-yl)-1-oxopropan-2-yl]-5-oxo-2-pyrrolidinecarboxamide

> <PUBCHEM_IUPAC_NAME_MARKUP>
acetic acid;(2<I>S</I>)-<I>N</I>-[(2<I>S</I>)-1-[[(2<I>S</I>)-1-[[(2<I>S</I>)-1-[[(2<I>S</I>)-1-[[(2<I>R</I>)-1-[[(2<I>S</I>)-1-[[(2<I>S</I>)-1-[(2<I>S</I>)-2-[(2-amino-2-oxoethyl)carbamoyl]pyrrolidin-1-yl]-5-(diaminomethylideneamino)-1-oxopentan-2-yl]amino]-4-methyl-1-oxopentan-2-yl]amino]-3-(1<I>H</I>-indol-3-yl)-1-oxopropan-2-yl]amino]-3-(4-hydroxyphenyl)-1-oxopropan-2-yl]amino]-3-hydroxy-1-oxopropan-2-yl]amino]-3-(1<I>H</I>-indol-3-yl)-1-oxopropan-2-yl]amino]-3-(1<I>H</I>-imidazol-5-yl)-1-oxopropan-2-yl]-5-oxopyrrolidine-2-carboxamide

> <PUBCHEM_IUPAC_NAME>
acetic acid;(2S)-N-[(2S)-1-[[(2S)-1-[[(2S)-1-[[(2S)-1-[[(2R)-1-[[(2S)-1-[[(2S)-1-[(2S)-2-[(2-amino-2-oxoethyl)carbamoyl]pyrrolidin-1-yl]-5-(diaminomethylideneamino)-1-oxopentan-2-yl]amino]-4-methyl-1-oxopentan-2-yl]amino]-3-(1H-indol-3-yl)-1-oxopropan-2-yl]amino]-3-(4-hydroxyphenyl)-1-oxopropan-2-yl]amino]-3-hydroxy-1-oxopropan-2-yl]amino]-3-(1H-indol-3-yl)-1-oxopropan-2-yl]amino]-3-(1H-imidazol-5-yl)-1-oxopropan-2-yl]-5-oxopyrrolidine-2-carboxamide

> <PUBCHEM_IUPAC_SYSTEMATIC_NAME>
(2S)-N-[(2S)-1-[[(2S)-1-[[(2S)-1-[[(2S)-1-[[(2R)-1-[[(2S)-1-[[(2S)-1-[(2S)-2-[(2-azanyl-2-oxidanylidene-ethyl)carbamoyl]pyrrolidin-1-yl]-5-[bis(azanyl)methylideneamino]-1-oxidanylidene-pentan-2-yl]amino]-4-methyl-1-oxidanylidene-pentan-2-yl]amino]-3-(1H-indol-3-yl)-1-oxidanylidene-propan-2-yl]amino]-3-(4-hydroxyphenyl)-1-oxidanylidene-propan-2-yl]amino]-3-oxidanyl-1-oxidanylidene-propan-2-yl]amino]-3-(1H-indol-3-yl)-1-oxidanylidene-propan-2-yl]amino]-3-(1H-imidazol-5-yl)-1-oxidanylidene-propan-2-yl]-5-oxidanylidene-pyrrolidine-2-carboxamide;ethanoic acid

> <PUBCHEM_IUPAC_TRADITIONAL_NAME>
acetic acid;(2S)-N-[(1S)-2-[[(1S)-2-[[(1S)-2-[[(1S)-2-[[(1R)-2-[[(1S)-1-[[(1S)-1-[(2S)-2-[(2-amino-2-keto-ethyl)carbamoyl]pyrrolidine-1-carbonyl]-4-guanidino-butyl]carbamoyl]-3-methyl-butyl]amino]-1-(1H-indol-3-ylmethyl)-2-keto-ethyl]amino]-1-(4-hydroxybenzyl)-2-keto-ethyl]amino]-2-keto-1-methylol-ethyl]amino]-1-(1H-indol-3-ylmethyl)-2-keto-ethyl]amino]-1-(1H-imidazol-5-ylmethyl)-2-keto-ethyl]-5-keto-pyrrolidine-2-carboxamide

> <PUBCHEM_IUPAC_INCHI>
InChI=1S/C64H82N18O13.C2H4O2/c1-34(2)23-46(56(88)75-45(13-7-21-69-64(66)67)63(95)82-22-8-14-52(82)62(94)72-31-53(65)85)76-58(90)48(25-36-28-70-42-11-5-3-9-40(36)42)78-57(89)47(24-35-15-17-39(84)18-16-35)77-61(93)51(32-83)81-59(91)49(26-37-29-71-43-12-6-4-10-41(37)43)79-60(92)50(27-38-30-68-33-73-38)80-55(87)44-19-20-54(86)74-44;1-2(3)4/h3-6,9-12,15-18,28-30,33-34,44-52,70-71,83-84H,7-8,13-14,19-27,31-32H2,1-2H3,(H2,65,85)(H,68,73)(H,72,94)(H,74,86)(H,75,88)(H,76,90)(H,77,93)(H,78,89)(H,79,92)(H,80,87)(H,81,91)(H4,66,67,69);1H3,(H,3,4)/t44-,45-,46-,47-,48+,49-,50-,51-,52-;/m0./s1

> <PUBCHEM_IUPAC_INCHIKEY>
HPPONSCISKROOD-OYLNGHKZSA-N

> <PUBCHEM_EXACT_MASS>
1370.65200411

> <PUBCHEM_MOLECULAR_FORMULA>
C66H86N18O15

> <PUBCHEM_MOLECULAR_WEIGHT>
1371.5

> <PUBCHEM_OPENEYE_CAN_SMILES>
CC(C)CC(C(=O)NC(CCCN=C(N)N)C(=O)N1CCCC1C(=O)NCC(=O)N)NC(=O)C(CC2=CNC3=CC=CC=C32)NC(=O)C(CC4=CC=C(C=C4)O)NC(=O)C(CO)NC(=O)C(CC5=CNC6=CC=CC=C65)NC(=O)C(CC7=CN=CN7)NC(=O)C8CCC(=O)N8.CC(=O)O

> <PUBCHEM_OPENEYE_ISO_SMILES>
CC(C)C[C@@H](C(=O)N[C@@H](CCCN=C(N)N)C(=O)N1CCC[C@H]1C(=O)NCC(=O)N)NC(=O)[C@@H](CC2=CNC3=CC=CC=C32)NC(=O)[C@H](CC4=CC=C(C=C4)O)NC(=O)[C@H](CO)NC(=O)[C@H](CC5=CNC6=CC=CC=C65)NC(=O)[C@H](CC7=CN=CN7)NC(=O)[C@@H]8CCC(=O)N8.CC(=O)O

> <PUBCHEM_CACTVS_TPSA>
528

> <PUBCHEM_MONOISOTOPIC_WEIGHT>
1370.65200411

> <PUBCHEM_TOTAL_CHARGE>
0

> <PUBCHEM_HEAVY_ATOM_COUNT>
99

> <PUBCHEM_ATOM_DEF_STEREO_COUNT>
9

> <PUBCHEM_ATOM_UDEF_STEREO_COUNT>
0

> <PUBCHEM_BOND_DEF_STEREO_COUNT>
0

> <PUBCHEM_BOND_UDEF_STEREO_COUNT>
0

> <PUBCHEM_ISOTOPIC_ATOM_COUNT>
0

> <PUBCHEM_COMPONENT_COUNT>
2

> <PUBCHEM_CACTVS_TAUTO_COUNT>
-1

> <PUBCHEM_COORDINATE_TYPE>
1
5
255

> <PUBCHEM_BONDANNOTATIONS>
39  17  5
43  19  6
49  21  5
23  60  8
23  62  8
56  24  5
66  26  5
65  27  5
71  30  6
31  85  8
31  86  8
32  84  8
32  97  8
33  91  8
33  97  8
34  40  5
55  58  8
55  60  8
58  62  8
58  68  8
61  70  5
62  75  8
68  80  8
75  82  8
77  87  8
77  88  8
78  81  8
78  85  8
80  82  8
81  86  8
81  89  8
84  91  8
86  90  8
87  92  8
88  93  8
89  94  8
90  96  8
92  95  8
93  95  8
94  96  8

$$$$
