5291
     RDKit          2D

 37 41  0  0  0  0  0  0  0  0999 V2000
    7.1962   -0.5000    0.0000 O   0  0  0  0  0  0  0  0  0  0  0  0
    2.8660   -3.0000    0.0000 N   0  0  0  0  0  0  0  0  0  0  0  0
    2.8660   -5.0000    0.0000 N   0  0  0  0  0  0  0  0  0  0  0  0
    6.3301    1.0000    0.0000 N   0  0  0  0  0  0  0  0  0  0  0  0
    8.0622    4.0000    0.0000 N   0  0  0  0  0  0  0  0  0  0  0  0
    6.3301    4.0000    0.0000 N   0  0  0  0  0  0  0  0  0  0  0  0
    7.1962    5.5000    0.0000 N   0  0  0  0  0  0  0  0  0  0  0  0
    2.8660    4.0000    0.0000 N   0  0  0  0  0  0  0  0  0  0  0  0
    2.0000   -3.5000    0.0000 C   0  0  0  0  0  0  0  0  0  0  0  0
    3.7320   -3.5000    0.0000 C   0  0  0  0  0  0  0  0  0  0  0  0
    2.0000   -4.5000    0.0000 C   0  0  0  0  0  0  0  0  0  0  0  0
    3.7320   -4.5000    0.0000 C   0  0  0  0  0  0  0  0  0  0  0  0
    2.8660   -2.0000    0.0000 C   0  0  0  0  0  0  0  0  0  0  0  0
    2.8660   -6.0000    0.0000 C   0  0  0  0  0  0  0  0  0  0  0  0
    3.7320   -1.5000    0.0000 C   0  0  0  0  0  0  0  0  0  0  0  0
    3.7320   -0.5000    0.0000 C   0  0  0  0  0  0  0  0  0  0  0  0
    4.5981   -2.0000    0.0000 C   0  0  0  0  0  0  0  0  0  0  0  0
    4.5981    0.0000    0.0000 C   0  0  0  0  0  0  0  0  0  0  0  0
    5.4641   -1.5000    0.0000 C   0  0  0  0  0  0  0  0  0  0  0  0
    5.4641   -0.5000    0.0000 C   0  0  0  0  0  0  0  0  0  0  0  0
    6.3301   -0.0000    0.0000 C   0  0  0  0  0  0  0  0  0  0  0  0
    7.1962    1.5000    0.0000 C   0  0  0  0  0  0  0  0  0  0  0  0
    8.0622    3.0000    0.0000 C   0  0  0  0  0  0  0  0  0  0  0  0
    7.1962    2.5000    0.0000 C   0  0  0  0  0  0  0  0  0  0  0  0
    8.9282    2.5000    0.0000 C   0  0  0  0  0  0  0  0  0  0  0  0
    8.0622    1.0000    0.0000 C   0  0  0  0  0  0  0  0  0  0  0  0
    8.9282    1.5000    0.0000 C   0  0  0  0  0  0  0  0  0  0  0  0
    9.7942    3.0000    0.0000 C   0  0  0  0  0  0  0  0  0  0  0  0
    7.1962    4.5000    0.0000 C   0  0  0  0  0  0  0  0  0  0  0  0
    5.4641    4.5000    0.0000 C   0  0  0  0  0  0  0  0  0  0  0  0
    4.5981    4.0000    0.0000 C   0  0  0  0  0  0  0  0  0  0  0  0
    5.4641    5.5000    0.0000 C   0  0  0  0  0  0  0  0  0  0  0  0
    6.3301    6.0000    0.0000 C   0  0  0  0  0  0  0  0  0  0  0  0
    4.5981    3.0000    0.0000 C   0  0  0  0  0  0  0  0  0  0  0  0
    3.7320    4.5000    0.0000 C   0  0  0  0  0  0  0  0  0  0  0  0
    3.7320    2.5000    0.0000 C   0  0  0  0  0  0  0  0  0  0  0  0
    2.8660    3.0000    0.0000 C   0  0  0  0  0  0  0  0  0  0  0  0
  1 21  2  0
  2  9  1  0
  2 10  1  0
  2 13  1  0
  3 11  1  0
  3 12  1  0
  3 14  1  0
  4 21  1  0
  4 22  1  0
  5 23  1  0
  5 29  1  0
  6 29  2  0
  6 30  1  0
  7 29  1  0
  7 33  2  0
  8 35  2  0
  8 37  1  0
  9 11  1  0
 10 12  1  0
 13 15  1  0
 15 16  2  0
 15 17  1  0
 16 18  1  0
 17 19  2  0
 18 20  2  0
 19 20  1  0
 20 21  1  0
 22 24  2  0
 22 26  1  0
 23 24  1  0
 23 25  2  0
 25 27  1  0
 25 28  1  0
 26 27  2  0
 30 31  1  0
 30 32  2  0
 31 34  2  0
 31 35  1  0
 32 33  1  0
 34 36  1  0
 36 37  2  0
M  END
>  <PUBCHEM_COMPOUND_CID>  (1) 
5291

>  <PUBCHEM_COMPOUND_CANONICALIZED>  (1) 
1

>  <PUBCHEM_CACTVS_COMPLEXITY>  (1) 
706

>  <PUBCHEM_CACTVS_HBOND_ACCEPTOR>  (1) 
7

>  <PUBCHEM_CACTVS_HBOND_DONOR>  (1) 
2

>  <PUBCHEM_CACTVS_ROTATABLE_BOND>  (1) 
7

>  <PUBCHEM_CACTVS_SUBSKEYS>  (1) 
AAADceB7oAAAAAAAAAAAAAAAAAAAAAAAAAA8eLECAAAAAAAB9AAAHgAQAAAADAjBngQ/0JfIEACoAzV3dACCgCk1AqAJ2CE4ZNiIaPLA3dGUJQholALIyacYiACOSAAAAAQCAACQAAAACAQAAAAAAAAAAA==

>  <PUBCHEM_IUPAC_OPENEYE_NAME>  (1) 
4-[(4-methylpiperazin-1-yl)methyl]-N-[4-methyl-3-[[4-(3-pyridyl)pyrimidin-2-yl]amino]phenyl]benzamide

>  <PUBCHEM_IUPAC_CAS_NAME>  (1) 
4-[(4-methyl-1-piperazinyl)methyl]-N-[4-methyl-3-[[4-(3-pyridinyl)-2-pyrimidinyl]amino]phenyl]benzamide

>  <PUBCHEM_IUPAC_NAME_MARKUP>  (1) 
4-[(4-methylpiperazin-1-yl)methyl]-<I>N</I>-[4-methyl-3-[(4-pyridin-3-ylpyrimidin-2-yl)amino]phenyl]benzamide

>  <PUBCHEM_IUPAC_NAME>  (1) 
4-[(4-methylpiperazin-1-yl)methyl]-N-[4-methyl-3-[(4-pyridin-3-ylpyrimidin-2-yl)amino]phenyl]benzamide

>  <PUBCHEM_IUPAC_SYSTEMATIC_NAME>  (1) 
4-[(4-methylpiperazin-1-yl)methyl]-N-[4-methyl-3-[(4-pyridin-3-ylpyrimidin-2-yl)amino]phenyl]benzamide

>  <PUBCHEM_IUPAC_TRADITIONAL_NAME>  (1) 
4-[(4-methylpiperazino)methyl]-N-[4-methyl-3-[[4-(3-pyridyl)pyrimidin-2-yl]amino]phenyl]benzamide

>  <PUBCHEM_IUPAC_INCHI>  (1) 
InChI=1S/C29H31N7O/c1-21-5-10-25(18-27(21)34-29-31-13-11-26(33-29)24-4-3-12-30-19-24)32-28(37)23-8-6-22(7-9-23)20-36-16-14-35(2)15-17-36/h3-13,18-19H,14-17,20H2,1-2H3,(H,32,37)(H,31,33,34)

>  <PUBCHEM_IUPAC_INCHIKEY>  (1) 
KTUFNOKKBVMGRW-UHFFFAOYSA-N

>  <PUBCHEM_XLOGP3_AA>  (1) 
3.5

>  <PUBCHEM_EXACT_MASS>  (1) 
493.25900864

>  <PUBCHEM_MOLECULAR_FORMULA>  (1) 
C29H31N7O

>  <PUBCHEM_MOLECULAR_WEIGHT>  (1) 
493.6

>  <PUBCHEM_OPENEYE_CAN_SMILES>  (1) 
CC1=C(C=C(C=C1)NC(=O)C2=CC=C(C=C2)CN3CCN(CC3)C)NC4=NC=CC(=N4)C5=CN=CC=C5

>  <PUBCHEM_OPENEYE_ISO_SMILES>  (1) 
CC1=C(C=C(C=C1)NC(=O)C2=CC=C(C=C2)CN3CCN(CC3)C)NC4=NC=CC(=N4)C5=CN=CC=C5

>  <PUBCHEM_CACTVS_TPSA>  (1) 
86.3

>  <PUBCHEM_MONOISOTOPIC_WEIGHT>  (1) 
493.25900864

>  <PUBCHEM_TOTAL_CHARGE>  (1) 
0

>  <PUBCHEM_HEAVY_ATOM_COUNT>  (1) 
37

>  <PUBCHEM_ATOM_DEF_STEREO_COUNT>  (1) 
0

>  <PUBCHEM_ATOM_UDEF_STEREO_COUNT>  (1) 
0

>  <PUBCHEM_BOND_DEF_STEREO_COUNT>  (1) 
0

>  <PUBCHEM_BOND_UDEF_STEREO_COUNT>  (1) 
0

>  <PUBCHEM_ISOTOPIC_ATOM_COUNT>  (1) 
0

>  <PUBCHEM_COMPONENT_COUNT>  (1) 
1

>  <PUBCHEM_CACTVS_TAUTO_COUNT>  (1) 
-1

>  <PUBCHEM_COORDINATE_TYPE>  (1) 
1
5
255

>  <PUBCHEM_BONDANNOTATIONS>  (1) 
15  16  8
15  17  8
16  18  8
17  19  8
18  20  8
19  20  8
22  24  8
22  26  8
23  24  8
23  25  8
25  27  8
26  27  8
30  32  8
31  34  8
31  35  8
32  33  8
34  36  8
36  37  8
6  29  8
6  30  8
7  29  8
7  33  8
8  35  8
8  37  8

$$$$
