135462983
     RDKit          2D

 50 53  0  0  0  0  0  0  0  0999 V2000
   11.4664   -7.0443    0.0000 S   0  0  0  0  0  0  0  0  0  0  0  0
    2.8660    7.0443    0.0000 S   0  0  0  0  0  0  0  0  0  0  0  0
   12.3324   -8.5443    0.0000 Na  0  0  0  0  0 15  0  0  0  0  0  0
    2.0000    8.5443    0.0000 Na  0  0  0  0  0 15  0  0  0  0  0  0
    9.7343   -4.0443    0.0000 O   0  0  0  0  0  0  0  0  0  0  0  0
    4.5981    4.0443    0.0000 O   0  0  0  0  0  0  0  0  0  0  0  0
   12.3324   -7.5443    0.0000 O   0  0  0  0  0  0  0  0  0  0  0  0
    2.0000    7.5443    0.0000 O   0  0  0  0  0  0  0  0  0  0  0  0
   10.9664   -7.9104    0.0000 O   0  0  0  0  0  0  0  0  0  0  0  0
   11.9664   -6.1783    0.0000 O   0  0  0  0  0  0  0  0  0  0  0  0
    2.3660    6.1783    0.0000 O   0  0  0  0  0  0  0  0  0  0  0  0
    3.3660    7.9104    0.0000 O   0  0  0  0  0  0  0  0  0  0  0  0
    7.9859   -4.0098    0.0000 N   0  0  0  0  0  0  0  0  0  0  0  0
    6.3465    4.0098    0.0000 N   0  0  0  0  0  0  0  0  0  0  0  0
    6.2042   -5.0202    0.0000 N   0  0  0  0  0  0  0  0  0  0  0  0
    8.1282    5.0202    0.0000 N   0  0  0  0  0  0  0  0  0  0  0  0
    7.1257   -3.4998    0.0000 N   0  0  0  0  0  0  0  0  0  0  0  0
    7.2067    3.4998    0.0000 N   0  0  0  0  0  0  0  0  0  0  0  0
    8.8683   -5.5443    0.0000 C   0  0  0  0  0  0  0  0  0  0  0  0
    5.4641    5.5443    0.0000 C   0  0  0  0  0  0  0  0  0  0  0  0
    8.8683   -6.5443    0.0000 C   0  0  0  0  0  0  0  0  0  0  0  0
    5.4641    6.5443    0.0000 C   0  0  0  0  0  0  0  0  0  0  0  0
    7.9744   -5.0097    0.0000 C   0  0  0  0  0  0  0  0  0  0  0  0
    6.3580    5.0097    0.0000 C   0  0  0  0  0  0  0  0  0  0  0  0
    9.7343   -5.0443    0.0000 C   0  0  0  0  0  0  0  0  0  0  0  0
    4.5981    5.0443    0.0000 C   0  0  0  0  0  0  0  0  0  0  0  0
    9.7343   -7.0443    0.0000 C   0  0  0  0  0  0  0  0  0  0  0  0
    4.5981    7.0443    0.0000 C   0  0  0  0  0  0  0  0  0  0  0  0
   10.6003   -6.5443    0.0000 C   0  0  0  0  0  0  0  0  0  0  0  0
    3.7320    6.5443    0.0000 C   0  0  0  0  0  0  0  0  0  0  0  0
    7.9744   -7.0790    0.0000 C   0  0  0  0  0  0  0  0  0  0  0  0
    6.3580    7.0790    0.0000 C   0  0  0  0  0  0  0  0  0  0  0  0
    7.0683   -5.5235    0.0000 C   0  0  0  0  0  0  0  0  0  0  0  0
    7.2641    5.5235    0.0000 C   0  0  0  0  0  0  0  0  0  0  0  0
   10.6003   -5.5443    0.0000 C   0  0  0  0  0  0  0  0  0  0  0  0
    3.7320    5.5443    0.0000 C   0  0  0  0  0  0  0  0  0  0  0  0
    7.0683   -6.5652    0.0000 C   0  0  0  0  0  0  0  0  0  0  0  0
    7.2641    6.5652    0.0000 C   0  0  0  0  0  0  0  0  0  0  0  0
    7.1604   -0.5000    0.0000 C   0  0  0  0  0  0  0  0  0  0  0  0
    7.1720    0.5000    0.0000 C   0  0  0  0  0  0  0  0  0  0  0  0
    7.1373   -2.4998    0.0000 C   0  0  0  0  0  0  0  0  0  0  0  0
    7.1951    2.4998    0.0000 C   0  0  0  0  0  0  0  0  0  0  0  0
    8.0206   -1.0099    0.0000 C   0  0  0  0  0  0  0  0  0  0  0  0
    8.0437    0.9899    0.0000 C   0  0  0  0  0  0  0  0  0  0  0  0
    6.2887   -0.9899    0.0000 C   0  0  0  0  0  0  0  0  0  0  0  0
    6.3118    1.0099    0.0000 C   0  0  0  0  0  0  0  0  0  0  0  0
    8.0090   -2.0099    0.0000 C   0  0  0  0  0  0  0  0  0  0  0  0
    8.0553    1.9898    0.0000 C   0  0  0  0  0  0  0  0  0  0  0  0
    6.2771   -1.9898    0.0000 C   0  0  0  0  0  0  0  0  0  0  0  0
    6.3233    2.0099    0.0000 C   0  0  0  0  0  0  0  0  0  0  0  0
  1  7  1  0
  1  9  2  0
  1 10  2  0
  1 29  1  0
  2  8  1  0
  2 11  2  0
  2 12  2  0
  2 30  1  0
  5 25  1  0
  6 26  1  0
 13 17  2  0
 13 23  1  0
 14 18  2  0
 14 24  1  0
 15 33  1  0
 16 34  1  0
 17 41  1  0
 18 42  1  0
 19 21  1  0
 19 23  1  0
 19 25  2  0
 20 22  1  0
 20 24  1  0
 20 26  2  0
 21 27  2  0
 21 31  1  0
 22 28  2  0
 22 32  1  0
 23 33  2  0
 24 34  2  0
 25 35  1  0
 26 36  1  0
 27 29  1  0
 28 30  1  0
 29 35  2  0
 30 36  2  0
 31 37  2  0
 32 38  2  0
 33 37  1  0
 34 38  1  0
 39 40  1  0
 39 43  2  0
 39 45  1  0
 40 44  2  0
 40 46  1  0
 41 47  2  0
 41 49  1  0
 42 48  2  0
 42 50  1  0
 43 47  1  0
 44 48  1  0
 45 49  2  0
 46 50  2  0
M  CHG  4   3   1   4   1   7  -1   8  -1
M  END
>  <PUBCHEM_COMPOUND_CID>  (1) 
135462983

>  <PUBCHEM_COMPOUND_CANONICALIZED>  (1) 
1

>  <PUBCHEM_CACTVS_COMPLEXITY>  (1) 
1240

>  <PUBCHEM_CACTVS_HBOND_ACCEPTOR>  (1) 
14

>  <PUBCHEM_CACTVS_HBOND_DONOR>  (1) 
4

>  <PUBCHEM_CACTVS_ROTATABLE_BOND>  (1) 
5

>  <PUBCHEM_CACTVS_SUBSKEYS>  (1) 
AAADceB/vDBgAAAAAAAAAAAAAAAAAAAAAAAwYMGDAAAAAADBVAAAHgQYCAAADAyB2AAwx8BAAgKCAiRCQHDCAEAgIgAIiBgGfIgIZiKCkZOAcABm0BkI2AewwPAOmAABxAAaACAwAAOIADQAQAAAAAAAAA==

>  <PUBCHEM_IUPAC_OPENEYE_NAME>  (1) 
disodium;6-amino-5-[4-[4-[(2-amino-8-hydroxy-6-sulfonato-1-naphthyl)azo]phenyl]phenyl]azo-4-hydroxy-naphthalene-2-sulfonate

>  <PUBCHEM_IUPAC_CAS_NAME>  (1) 
disodium;6-amino-5-[4-[4-[(2-amino-8-hydroxy-6-sulfonato-1-naphthalenyl)azo]phenyl]phenyl]azo-4-hydroxy-2-naphthalenesulfonate

>  <PUBCHEM_IUPAC_NAME_MARKUP>  (1) 
disodium;6-amino-5-[[4-[4-[(2-amino-8-hydroxy-6-sulfonatonaphthalen-1-yl)diazenyl]phenyl]phenyl]diazenyl]-4-hydroxynaphthalene-2-sulfonate

>  <PUBCHEM_IUPAC_NAME>  (1) 
disodium;6-amino-5-[[4-[4-[(2-amino-8-hydroxy-6-sulfonatonaphthalen-1-yl)diazenyl]phenyl]phenyl]diazenyl]-4-hydroxynaphthalene-2-sulfonate

>  <PUBCHEM_IUPAC_SYSTEMATIC_NAME>  (1) 
disodium;6-azanyl-5-[[4-[4-[(2-azanyl-8-oxidanyl-6-sulfonato-naphthalen-1-yl)diazenyl]phenyl]phenyl]diazenyl]-4-oxidanyl-naphthalene-2-sulfonate

>  <PUBCHEM_IUPAC_TRADITIONAL_NAME>  (1) 
disodium;6-amino-5-[4-[4-[(2-amino-8-hydroxy-6-sulfonato-1-naphthyl)azo]phenyl]phenyl]azo-4-hydroxy-naphthalene-2-sulfonate

>  <PUBCHEM_IUPAC_INCHI>  (1) 
InChI=1S/C32H24N6O8S2.2Na/c33-25-11-5-19-13-23(47(41,42)43)15-27(39)29(19)31(25)37-35-21-7-1-17(2-8-21)18-3-9-22(10-4-18)36-38-32-26(34)12-6-20-14-24(48(44,45)46)16-28(40)30(20)32;;/h1-16,39-40H,33-34H2,(H,41,42,43)(H,44,45,46);;/q;2*+1/p-2

>  <PUBCHEM_IUPAC_INCHIKEY>  (1) 
VDRKHPFIMDTBNX-UHFFFAOYSA-L

>  <PUBCHEM_EXACT_MASS>  (1) 
728.07359259

>  <PUBCHEM_MOLECULAR_FORMULA>  (1) 
C32H22N6Na2O8S2

>  <PUBCHEM_MOLECULAR_WEIGHT>  (1) 
728.7

>  <PUBCHEM_OPENEYE_CAN_SMILES>  (1) 
C1=CC(=CC=C1C2=CC=C(C=C2)N=NC3=C(C=CC4=CC(=CC(=C43)O)S(=O)(=O)[O-])N)N=NC5=C(C=CC6=CC(=CC(=C65)O)S(=O)(=O)[O-])N.[Na+].[Na+]

>  <PUBCHEM_OPENEYE_ISO_SMILES>  (1) 
C1=CC(=CC=C1C2=CC=C(C=C2)N=NC3=C(C=CC4=CC(=CC(=C43)O)S(=O)(=O)[O-])N)N=NC5=C(C=CC6=CC(=CC(=C65)O)S(=O)(=O)[O-])N.[Na+].[Na+]

>  <PUBCHEM_CACTVS_TPSA>  (1) 
273

>  <PUBCHEM_MONOISOTOPIC_WEIGHT>  (1) 
728.07359259

>  <PUBCHEM_TOTAL_CHARGE>  (1) 
0

>  <PUBCHEM_HEAVY_ATOM_COUNT>  (1) 
50

>  <PUBCHEM_ATOM_DEF_STEREO_COUNT>  (1) 
0

>  <PUBCHEM_ATOM_UDEF_STEREO_COUNT>  (1) 
0

>  <PUBCHEM_BOND_DEF_STEREO_COUNT>  (1) 
0

>  <PUBCHEM_BOND_UDEF_STEREO_COUNT>  (1) 
0

>  <PUBCHEM_ISOTOPIC_ATOM_COUNT>  (1) 
0

>  <PUBCHEM_COMPONENT_COUNT>  (1) 
3

>  <PUBCHEM_CACTVS_TAUTO_COUNT>  (1) 
-1

>  <PUBCHEM_COORDINATE_TYPE>  (1) 
1
5
255

>  <PUBCHEM_BONDANNOTATIONS>  (1) 
19  21  8
19  23  8
19  25  8
20  22  8
20  24  8
20  26  8
21  27  8
21  31  8
22  28  8
22  32  8
23  33  8
24  34  8
25  35  8
26  36  8
27  29  8
28  30  8
29  35  8
30  36  8
31  37  8
32  38  8
33  37  8
34  38  8
39  43  8
39  45  8
40  44  8
40  46  8
41  47  8
41  49  8
42  48  8
42  50  8
43  47  8
44  48  8
45  49  8
46  50  8

$$$$
