65866
     RDKit          2D

 45 48  0  0  1  0  0  0  0  0999 V2000
    9.7942   -1.1900    0.0000 O   0  0  0  0  0  0  0  0  0  0  0  0
   10.6603    0.3100    0.0000 O   0  0  0  0  0  0  0  0  0  0  0  0
   14.9904   -1.1900    0.0000 O   0  0  0  0  0  0  0  0  0  0  0  0
   14.1244    0.3100    0.0000 O   0  0  0  0  0  0  0  0  0  0  0  0
   14.1244    3.3100    0.0000 O   0  0  0  0  0  0  0  0  0  0  0  0
   14.9904    1.8100    0.0000 O   0  0  0  0  0  0  0  0  0  0  0  0
    7.1962   -0.6900    0.0000 N   0  0  0  0  0  0  0  0  0  0  0  0
   12.3923   -2.6900    0.0000 N   0  0  0  0  0  0  0  0  0  0  0  0
   14.1244    2.3100    0.0000 N   0  0  0  0  0  0  0  0  0  0  0  0
    8.9282   -0.6900    0.0000 C   0  0  0  0  0  0  0  0  0  0  0  0
    8.0622   -0.1900    0.0000 C   0  0  0  0  0  0  0  0  0  0  0  0
    6.3301   -0.1900    0.0000 C   0  0  0  0  0  0  0  0  0  0  0  0
    5.4641   -0.6900    0.0000 C   0  0  0  0  0  0  0  0  0  0  0  0
    4.5981   -0.1900    0.0000 C   0  0  0  0  0  0  0  0  0  0  0  0
   12.3923   -0.6900    0.0000 C   0  0  0  0  0  0  0  0  0  0  0  0
    8.4282   -1.5560    0.0000 C   0  0  0  0  0  0  0  0  0  0  0  0
    9.4282    0.1760    0.0000 C   0  0  0  0  0  0  0  0  0  0  0  0
   11.5263   -1.1900    0.0000 C   0  0  0  0  0  0  0  0  0  0  0  0
    7.1962   -1.6900    0.0000 C   0  0  0  0  0  0  0  0  0  0  0  0
    3.7320   -0.6900    0.0000 C   0  0  0  0  0  0  0  0  0  0  0  0
    4.5981    0.8100    0.0000 C   0  0  0  0  0  0  0  0  0  0  0  0
   13.2583   -1.1900    0.0000 C   0  0  0  0  0  0  0  0  0  0  0  0
   10.6603   -0.6900    0.0000 C   0  0  0  0  0  0  0  0  0  0  0  0
   11.5263   -2.1900    0.0000 C   0  0  0  0  0  0  0  0  0  0  0  0
   12.3923    0.3100    0.0000 C   0  0  0  0  0  0  0  0  0  0  0  0
   13.2583   -2.1900    0.0000 C   0  0  0  0  0  0  0  0  0  0  0  0
    3.7320   -1.6900    0.0000 C   0  0  0  0  0  0  0  0  0  0  0  0
    5.4641    1.3100    0.0000 C   0  0  0  0  0  0  0  0  0  0  0  0
    2.8660   -0.1900    0.0000 C   0  0  0  0  0  0  0  0  0  0  0  0
    3.7320    1.3100    0.0000 C   0  0  0  0  0  0  0  0  0  0  0  0
   10.6603   -2.6900    0.0000 C   0  0  0  0  0  0  0  0  0  0  0  0
   13.2583    0.8100    0.0000 C   0  0  0  0  0  0  0  0  0  0  0  0
   11.5263    0.8100    0.0000 C   0  0  0  0  0  0  0  0  0  0  0  0
   14.1244   -0.6900    0.0000 C   0  0  0  0  0  0  0  0  0  0  0  0
   14.1244   -2.6900    0.0000 C   0  0  0  0  0  0  0  0  0  0  0  0
   13.2583    1.8100    0.0000 C   0  0  0  0  0  0  0  0  0  0  0  0
    2.8660   -2.1900    0.0000 C   0  0  0  0  0  0  0  0  0  0  0  0
    5.4641    2.3100    0.0000 C   0  0  0  0  0  0  0  0  0  0  0  0
    2.0000   -0.6900    0.0000 C   0  0  0  0  0  0  0  0  0  0  0  0
    3.7320    2.3100    0.0000 C   0  0  0  0  0  0  0  0  0  0  0  0
   11.5263    1.8100    0.0000 C   0  0  0  0  0  0  0  0  0  0  0  0
    2.0000   -1.6900    0.0000 C   0  0  0  0  0  0  0  0  0  0  0  0
    4.5981    2.8100    0.0000 C   0  0  0  0  0  0  0  0  0  0  0  0
   12.3923    2.3100    0.0000 C   0  0  0  0  0  0  0  0  0  0  0  0
   15.8564   -0.6900    0.0000 C   0  0  0  0  0  0  0  0  0  0  0  0
  1 10  1  0
  1 23  1  0
  2 23  2  0
  3 34  1  0
  3 45  1  0
  4 34  2  0
  5  9  1  0
  6  9  2  0
  7 11  1  0
  7 12  1  0
  7 19  1  0
  8 24  1  0
  8 26  1  0
  9 36  1  0
 10 11  1  0
 10 16  1  0
 10 17  1  0
 12 13  1  0
 13 14  1  0
 14 20  1  0
 14 21  1  0
 15 18  1  0
 15 22  1  0
 15 25  1  0
 18 23  1  0
 18 24  2  0
 20 27  2  0
 20 29  1  0
 21 28  2  0
 21 30  1  0
 22 26  2  0
 22 34  1  0
 24 31  1  0
 25 32  2  0
 25 33  1  0
 26 35  1  0
 27 37  1  0
 28 38  1  0
 29 39  2  0
 30 40  2  0
 32 36  1  0
 33 41  2  0
 36 44  2  0
 37 42  2  0
 38 43  2  0
 39 42  1  0
 40 43  1  0
 41 44  1  0
M  CHG  2   5  -1   9   1
M  END
>  <PUBCHEM_COMPOUND_CID>  (1) 
65866

>  <PUBCHEM_COMPOUND_CANONICALIZED>  (1) 
1

>  <PUBCHEM_CACTVS_COMPLEXITY>  (1) 
1090

>  <PUBCHEM_CACTVS_HBOND_ACCEPTOR>  (1) 
8

>  <PUBCHEM_CACTVS_HBOND_DONOR>  (1) 
1

>  <PUBCHEM_CACTVS_ROTATABLE_BOND>  (1) 
13

>  <PUBCHEM_CACTVS_SUBSKEYS>  (1) 
AAADcfB/OAAAAAAAAAAAAAAAAAAAAAAAAAAwYMEAAAAAAAABUAAAHgAUAAAADUzBmAYyyIPQRACJAiTSSwCCAAAgAgAoiAEIZMoKJDKAsZGHMABkkACY6UeY7uiOgAAAQAAAAAAAAACAAAAAAAAAAAAAAA==

>  <PUBCHEM_IUPAC_OPENEYE_NAME>  (1) 
O5-[2-[3,3-diphenylpropyl(methyl)amino]-1,1-dimethyl-ethyl] O3-methyl 2,6-dimethyl-4-(3-nitrophenyl)-1,4-dihydropyridine-3,5-dicarboxylate

>  <PUBCHEM_IUPAC_CAS_NAME>  (1) 
2,6-dimethyl-4-(3-nitrophenyl)-1,4-dihydropyridine-3,5-dicarboxylic acid O5-[1-[3,3-diphenylpropyl(methyl)amino]-2-methylpropan-2-yl] ester O3-methyl ester

>  <PUBCHEM_IUPAC_NAME_MARKUP>  (1) 
5-<I>O</I>-[1-[3,3-diphenylpropyl(methyl)amino]-2-methylpropan-2-yl] 3-<I>O</I>-methyl 2,6-dimethyl-4-(3-nitrophenyl)-1,4-dihydropyridine-3,5-dicarboxylate

>  <PUBCHEM_IUPAC_NAME>  (1) 
5-O-[1-[3,3-diphenylpropyl(methyl)amino]-2-methylpropan-2-yl] 3-O-methyl 2,6-dimethyl-4-(3-nitrophenyl)-1,4-dihydropyridine-3,5-dicarboxylate

>  <PUBCHEM_IUPAC_SYSTEMATIC_NAME>  (1) 
O5-[1-[3,3-diphenylpropyl(methyl)amino]-2-methyl-propan-2-yl] O3-methyl 2,6-dimethyl-4-(3-nitrophenyl)-1,4-dihydropyridine-3,5-dicarboxylate

>  <PUBCHEM_IUPAC_TRADITIONAL_NAME>  (1) 
2,6-dimethyl-4-(3-nitrophenyl)-1,4-dihydropyridine-3,5-dicarboxylic acid O5-[2-[3,3-diphenylpropyl(methyl)amino]-1,1-dimethyl-ethyl] ester O3-methyl ester

>  <PUBCHEM_IUPAC_INCHI>  (1) 
InChI=1S/C36H41N3O6/c1-24-31(34(40)44-6)33(28-18-13-19-29(22-28)39(42)43)32(25(2)37-24)35(41)45-36(3,4)23-38(5)21-20-30(26-14-9-7-10-15-26)27-16-11-8-12-17-27/h7-19,22,30,33,37H,20-21,23H2,1-6H3

>  <PUBCHEM_IUPAC_INCHIKEY>  (1) 
ZDXUKAKRHYTAKV-UHFFFAOYSA-N

>  <PUBCHEM_XLOGP3>  (1) 
6.9

>  <PUBCHEM_EXACT_MASS>  (1) 
611.29953604

>  <PUBCHEM_MOLECULAR_FORMULA>  (1) 
C36H41N3O6

>  <PUBCHEM_MOLECULAR_WEIGHT>  (1) 
611.7

>  <PUBCHEM_OPENEYE_CAN_SMILES>  (1) 
CC1=C(C(C(=C(N1)C)C(=O)OC(C)(C)CN(C)CCC(C2=CC=CC=C2)C3=CC=CC=C3)C4=CC(=CC=C4)[N+](=O)[O-])C(=O)OC

>  <PUBCHEM_OPENEYE_ISO_SMILES>  (1) 
CC1=C(C(C(=C(N1)C)C(=O)OC(C)(C)CN(C)CCC(C2=CC=CC=C2)C3=CC=CC=C3)C4=CC(=CC=C4)[N+](=O)[O-])C(=O)OC

>  <PUBCHEM_CACTVS_TPSA>  (1) 
114

>  <PUBCHEM_MONOISOTOPIC_WEIGHT>  (1) 
611.29953604

>  <PUBCHEM_TOTAL_CHARGE>  (1) 
0

>  <PUBCHEM_HEAVY_ATOM_COUNT>  (1) 
45

>  <PUBCHEM_ATOM_DEF_STEREO_COUNT>  (1) 
0

>  <PUBCHEM_ATOM_UDEF_STEREO_COUNT>  (1) 
1

>  <PUBCHEM_BOND_DEF_STEREO_COUNT>  (1) 
0

>  <PUBCHEM_BOND_UDEF_STEREO_COUNT>  (1) 
0

>  <PUBCHEM_ISOTOPIC_ATOM_COUNT>  (1) 
0

>  <PUBCHEM_COMPONENT_COUNT>  (1) 
1

>  <PUBCHEM_CACTVS_TAUTO_COUNT>  (1) 
5

>  <PUBCHEM_COORDINATE_TYPE>  (1) 
1
5
255

>  <PUBCHEM_BONDANNOTATIONS>  (1) 
15  53  3
20  27  8
20  29  8
21  28  8
21  30  8
25  32  8
25  33  8
27  37  8
28  38  8
29  39  8
30  40  8
32  36  8
33  41  8
36  44  8
37  42  8
38  43  8
39  42  8
40  43  8
41  44  8

$$$$
