71457944
     RDKit          2D

171169  0  0  1  0  0  0  0  0999 V2000
   28.2132   13.2781    0.0000 S   0  0  0  0  0  0  0  0  0  0  0  0
   28.2132   17.0102    0.0000 S   0  0  0  0  0  0  0  0  0  0  0  0
   20.0397   11.5827    0.0000 O   0  0  0  0  0  0  0  0  0  0  0  0
   19.8127   27.7269    0.0000 O   0  0  0  0  0  0  0  0  0  0  0  0
    9.7300    3.5352    0.0000 O   0  0  0  0  0  0  0  0  0  0  0  0
   22.5806    8.8621    0.0000 O   0  0  0  0  0  0  0  0  0  0  0  0
   22.3536   25.0062    0.0000 O   0  0  0  0  0  0  0  0  0  0  0  0
    9.5030   19.6793    0.0000 O   0  0  0  0  0  0  0  0  0  0  0  0
   16.3170   11.5827    0.0000 O   0  0  0  0  0  0  0  0  0  0  0  0
   16.0901   27.7269    0.0000 O   0  0  0  0  0  0  0  0  0  0  0  0
   13.3991    5.8883    0.0000 O   0  0  0  0  0  0  0  0  0  0  0  0
   13.7761    8.8621    0.0000 O   0  0  0  0  0  0  0  0  0  0  0  0
   13.5492   25.0062    0.0000 O   0  0  0  0  0  0  0  0  0  0  0  0
   13.1721   22.0325    0.0000 O   0  0  0  0  0  0  0  0  0  0  0  0
    8.7323    3.6034    0.0000 O   0  0  0  0  0  0  0  0  0  0  0  0
   22.3265    5.1481    0.0000 O   0  0  0  0  0  0  0  0  0  0  0  0
   22.0996   21.2923    0.0000 O   0  0  0  0  0  0  0  0  0  0  0  0
    8.5053   19.7476    0.0000 O   0  0  0  0  0  0  0  0  0  0  0  0
   17.6169    2.0837    0.0000 O   0  0  0  0  0  0  0  0  0  0  0  0
   17.3899   18.2279    0.0000 O   0  0  0  0  0  0  0  0  0  0  0  0
   15.7509    3.3057    0.0000 O   0  0  0  0  0  0  0  0  0  0  0  0
   19.4388    2.7988    0.0000 O   0  0  0  0  0  0  0  0  0  0  0  0
   15.5239   19.4499    0.0000 O   0  0  0  0  0  0  0  0  0  0  0  0
    5.2995    4.7063    0.0000 O   0  0  0  0  0  0  0  0  0  0  0  0
   19.2119   18.9430    0.0000 O   0  0  0  0  0  0  0  0  0  0  0  0
    5.0726   20.8504    0.0000 O   0  0  0  0  0  0  0  0  0  0  0  0
   29.0792   13.7781    0.0000 O   0  0  0  0  0  0  0  0  0  0  0  0
   27.3471   12.7781    0.0000 O   0  0  0  0  0  0  0  0  0  0  0  0
   29.0792   17.5102    0.0000 O   0  0  0  0  0  0  0  0  0  0  0  0
   27.3471   16.5102    0.0000 O   0  0  0  0  0  0  0  0  0  0  0  0
   27.7132   14.1442    0.0000 O   0  0  0  0  0  0  0  0  0  0  0  0
   28.7132   12.4121    0.0000 O   0  0  0  0  0  0  0  0  0  0  0  0
   27.7132   17.8762    0.0000 O   0  0  0  0  0  0  0  0  0  0  0  0
   28.7132   16.1442    0.0000 O   0  0  0  0  0  0  0  0  0  0  0  0
   20.4957   10.1459    0.0000 N   0  0  0  0  0  0  0  0  0  0  0  0
   20.2687   26.2901    0.0000 N   0  0  0  0  0  0  0  0  0  0  0  0
   17.6784   10.9353    0.0000 N   0  0  0  0  0  0  0  0  0  0  0  0
   17.4514   27.0795    0.0000 N   0  0  0  0  0  0  0  0  0  0  0  0
   11.4037    6.0248    0.0000 N   0  0  0  0  0  0  0  0  0  0  0  0
   11.1768   22.1690    0.0000 N   0  0  0  0  0  0  0  0  0  0  0  0
   15.1785    9.4151    0.0000 N   0  0  0  0  0  0  0  0  0  0  0  0
   13.5173    7.6164    0.0000 N   0  0  0  0  0  0  0  0  0  0  0  0
   14.9515   25.5592    0.0000 N   0  0  0  0  0  0  0  0  0  0  0  0
   21.8418    7.5481    0.0000 N   0  0  0  0  0  0  0  0  0  0  0  0
   21.6148   23.6923    0.0000 N   0  0  0  0  0  0  0  0  0  0  0  0
   13.2903   23.7605    0.0000 N   0  0  0  0  0  0  0  0  0  0  0  0
    8.8505    5.3314    0.0000 N   0  0  0  0  0  0  0  0  0  0  0  0
    8.6235   21.4756    0.0000 N   0  0  0  0  0  0  0  0  0  0  0  0
   20.8620    4.7912    0.0000 N   0  0  0  0  0  0  0  0  0  0  0  0
   20.6350   20.9354    0.0000 N   0  0  0  0  0  0  0  0  0  0  0  0
    6.7369    3.7399    0.0000 N   0  0  0  0  0  0  0  0  0  0  0  0
   15.4948    4.7912    0.0000 N   0  0  0  0  0  0  0  0  0  0  0  0
   15.2678   20.9354    0.0000 N   0  0  0  0  0  0  0  0  0  0  0  0
   18.1784    3.6256    0.0000 N   0  0  0  0  0  0  0  0  0  0  0  0
   17.9514   19.7697    0.0000 N   0  0  0  0  0  0  0  0  0  0  0  0
    6.5100   19.8841    0.0000 N   0  0  0  0  0  0  0  0  0  0  0  0
   10.0845    8.7192    0.0000 N   0  0  0  0  0  0  0  0  0  0  0  0
   13.6115   11.5387    0.0000 N   0  0  0  0  0  0  0  0  0  0  0  0
   13.3846   27.6828    0.0000 N   0  0  0  0  0  0  0  0  0  0  0  0
    9.8576   24.8634    0.0000 N   0  0  0  0  0  0  0  0  0  0  0  0
   24.3974    6.8897    0.0000 N   0  0  0  0  0  0  0  0  0  0  0  0
   24.1705   23.0339    0.0000 N   0  0  0  0  0  0  0  0  0  0  0  0
    5.4177    6.4343    0.0000 N   0  0  0  0  0  0  0  0  0  0  0  0
   22.1252    2.4740    0.0000 N   0  0  0  0  0  0  0  0  0  0  0  0
   21.8982   18.6182    0.0000 N   0  0  0  0  0  0  0  0  0  0  0  0
    5.1908   22.5784    0.0000 N   0  0  0  0  0  0  0  0  0  0  0  0
   18.6784   10.9353    0.0000 C   0  0  0  0  0  0  0  0  0  0  0  0
   18.4514   27.0795    0.0000 C   0  0  0  0  0  0  0  0  0  0  0  0
   21.1783    9.4151    0.0000 C   0  0  0  0  0  0  0  0  0  0  0  0
   20.9513   25.5592    0.0000 C   0  0  0  0  0  0  0  0  0  0  0  0
   18.8145   11.9260    0.0000 C   0  0  0  0  0  0  0  0  0  0  0  0
   18.5876   28.0701    0.0000 C   0  0  0  0  0  0  0  0  0  0  0  0
   21.9952    9.9918    0.0000 C   0  0  0  0  0  0  0  0  0  0  0  0
   21.7683   26.1359    0.0000 C   0  0  0  0  0  0  0  0  0  0  0  0
   18.0247   12.5392    0.0000 C   0  0  0  0  0  0  0  0  0  0  0  0
   17.7977   28.6834    0.0000 C   0  0  0  0  0  0  0  0  0  0  0  0
   21.9043   10.9876    0.0000 C   0  0  0  0  0  0  0  0  0  0  0  0
   21.6773   27.1318    0.0000 C   0  0  0  0  0  0  0  0  0  0  0  0
    9.8482    5.2632    0.0000 C   0  0  0  0  0  0  0  0  0  0  0  0
   19.6413   10.6655    0.0000 C   0  0  0  0  0  0  0  0  0  0  0  0
   19.4143   26.8097    0.0000 C   0  0  0  0  0  0  0  0  0  0  0  0
   11.9617    6.8547    0.0000 C   0  0  0  0  0  0  0  0  0  0  0  0
   15.8610   10.1459    0.0000 C   0  0  0  0  0  0  0  0  0  0  0  0
   15.6341   26.2901    0.0000 C   0  0  0  0  0  0  0  0  0  0  0  0
   14.5150    7.5481    0.0000 C   0  0  0  0  0  0  0  0  0  0  0  0
   10.4061    6.0931    0.0000 C   0  0  0  0  0  0  0  0  0  0  0  0
    9.6212   21.4073    0.0000 C   0  0  0  0  0  0  0  0  0  0  0  0
   11.7347   22.9989    0.0000 C   0  0  0  0  0  0  0  0  0  0  0  0
   14.2880   23.6923    0.0000 C   0  0  0  0  0  0  0  0  0  0  0  0
   21.6383    8.5272    0.0000 C   0  0  0  0  0  0  0  0  0  0  0  0
   10.1791   22.2372    0.0000 C   0  0  0  0  0  0  0  0  0  0  0  0
   21.4114   24.6714    0.0000 C   0  0  0  0  0  0  0  0  0  0  0  0
   16.7154   10.6655    0.0000 C   0  0  0  0  0  0  0  0  0  0  0  0
   16.4885   26.8097    0.0000 C   0  0  0  0  0  0  0  0  0  0  0  0
   10.2879    4.3650    0.0000 C   0  0  0  0  0  0  0  0  0  0  0  0
   14.5832    6.5504    0.0000 C   0  0  0  0  0  0  0  0  0  0  0  0
   21.7735    6.5504    0.0000 C   0  0  0  0  0  0  0  0  0  0  0  0
   21.5466   22.6946    0.0000 C   0  0  0  0  0  0  0  0  0  0  0  0
   14.3562   22.6946    0.0000 C   0  0  0  0  0  0  0  0  0  0  0  0
   11.5219    7.7528    0.0000 C   0  0  0  0  0  0  0  0  0  0  0  0
   15.2299   10.9216    0.0000 C   0  0  0  0  0  0  0  0  0  0  0  0
   15.0030   27.0658    0.0000 C   0  0  0  0  0  0  0  0  0  0  0  0
   18.1608   13.5299    0.0000 C   0  0  0  0  0  0  0  0  0  0  0  0
   17.0986   12.1618    0.0000 C   0  0  0  0  0  0  0  0  0  0  0  0
   17.9339   29.6741    0.0000 C   0  0  0  0  0  0  0  0  0  0  0  0
   16.8717   28.3060    0.0000 C   0  0  0  0  0  0  0  0  0  0  0  0
   12.9594    6.7865    0.0000 C   0  0  0  0  0  0  0  0  0  0  0  0
   10.0609   20.5092    0.0000 C   0  0  0  0  0  0  0  0  0  0  0  0
   14.7184    8.5272    0.0000 C   0  0  0  0  0  0  0  0  0  0  0  0
   11.2950   23.8970    0.0000 C   0  0  0  0  0  0  0  0  0  0  0  0
   22.7213   11.5643    0.0000 C   0  0  0  0  0  0  0  0  0  0  0  0
   20.9964   11.4068    0.0000 C   0  0  0  0  0  0  0  0  0  0  0  0
   14.4915   24.6714    0.0000 C   0  0  0  0  0  0  0  0  0  0  0  0
   22.4943   27.7085    0.0000 C   0  0  0  0  0  0  0  0  0  0  0  0
   20.7694   27.5510    0.0000 C   0  0  0  0  0  0  0  0  0  0  0  0
   12.7324   22.9306    0.0000 C   0  0  0  0  0  0  0  0  0  0  0  0
    7.2949    4.5698    0.0000 C   0  0  0  0  0  0  0  0  0  0  0  0
   14.9181    5.6082    0.0000 C   0  0  0  0  0  0  0  0  0  0  0  0
    2.0701    1.4550    0.0000 C   0  0  0  0  0  0  0  0  0  0  0  0
   14.6911   21.7523    0.0000 C   0  0  0  0  0  0  0  0  0  0  0  0
    2.6281    2.2848    0.0000 C   0  0  0  0  0  0  0  0  0  0  0  0
   22.7526    6.3470    0.0000 C   0  0  0  0  0  0  0  0  0  0  0  0
   22.5257   22.4911    0.0000 C   0  0  0  0  0  0  0  0  0  0  0  0
    3.6257    2.2166    0.0000 C   0  0  0  0  0  0  0  0  0  0  0  0
    8.2925    4.5015    0.0000 C   0  0  0  0  0  0  0  0  0  0  0  0
   20.0863    4.1601    0.0000 C   0  0  0  0  0  0  0  0  0  0  0  0
   19.8593   20.3043    0.0000 C   0  0  0  0  0  0  0  0  0  0  0  0
   10.5243    7.8211    0.0000 C   0  0  0  0  0  0  0  0  0  0  0  0
   21.4387    5.6082    0.0000 C   0  0  0  0  0  0  0  0  0  0  0  0
   14.2426   10.7629    0.0000 C   0  0  0  0  0  0  0  0  0  0  0  0
   21.2117   21.7523    0.0000 C   0  0  0  0  0  0  0  0  0  0  0  0
    4.1837    3.0465    0.0000 C   0  0  0  0  0  0  0  0  0  0  0  0
    7.0679   20.7139    0.0000 C   0  0  0  0  0  0  0  0  0  0  0  0
   14.0157   26.9071    0.0000 C   0  0  0  0  0  0  0  0  0  0  0  0
   11.2856    4.2968    0.0000 C   0  0  0  0  0  0  0  0  0  0  0  0
    6.8551    5.4679    0.0000 C   0  0  0  0  0  0  0  0  0  0  0  0
   10.2973   23.9652    0.0000 C   0  0  0  0  0  0  0  0  0  0  0  0
   17.1877    3.7617    0.0000 C   0  0  0  0  0  0  0  0  0  0  0  0
   16.9607   19.9059    0.0000 C   0  0  0  0  0  0  0  0  0  0  0  0
    8.0656   20.6457    0.0000 C   0  0  0  0  0  0  0  0  0  0  0  0
    1.0725    1.5232    0.0000 C   0  0  0  0  0  0  0  0  0  0  0  0
    5.1813    2.9782    0.0000 C   0  0  0  0  0  0  0  0  0  0  0  0
   11.0586   20.4410    0.0000 C   0  0  0  0  0  0  0  0  0  0  0  0
   20.6058    3.3057    0.0000 C   0  0  0  0  0  0  0  0  0  0  0  0
   23.4184    7.0932    0.0000 C   0  0  0  0  0  0  0  0  0  0  0  0
   20.3789   19.4499    0.0000 C   0  0  0  0  0  0  0  0  0  0  0  0
   23.1914   23.2373    0.0000 C   0  0  0  0  0  0  0  0  0  0  0  0
    6.6282   21.6121    0.0000 C   0  0  0  0  0  0  0  0  0  0  0  0
   16.2705    4.1601    0.0000 C   0  0  0  0  0  0  0  0  0  0  0  0
   19.1691    3.7617    0.0000 C   0  0  0  0  0  0  0  0  0  0  0  0
    2.5099    0.5568    0.0000 C   0  0  0  0  0  0  0  0  0  0  0  0
   16.0435   20.3043    0.0000 C   0  0  0  0  0  0  0  0  0  0  0  0
    5.7393    3.8081    0.0000 C   0  0  0  0  0  0  0  0  0  0  0  0
   18.9421   19.9059    0.0000 C   0  0  0  0  0  0  0  0  0  0  0  0
   16.9179    2.7988    0.0000 C   0  0  0  0  0  0  0  0  0  0  0  0
   16.6909   18.9430    0.0000 C   0  0  0  0  0  0  0  0  0  0  0  0
    5.8575    5.5362    0.0000 C   0  0  0  0  0  0  0  0  0  0  0  0
    0.5145    0.6933    0.0000 C   0  0  0  0  0  0  0  0  0  0  0  0
   21.6056    3.3285    0.0000 C   0  0  0  0  0  0  0  0  0  0  0  0
   21.3786   19.4726    0.0000 C   0  0  0  0  0  0  0  0  0  0  0  0
    5.6305   21.6803    0.0000 C   0  0  0  0  0  0  0  0  0  0  0  0
    3.9567   19.1907    0.0000 C   0  0  0  0  0  0  0  0  0  0  0  0
    4.9544   19.1224    0.0000 C   0  0  0  0  0  0  0  0  0  0  0  0
    3.3988   18.3608    0.0000 C   0  0  0  0  0  0  0  0  0  0  0  0
    5.5123   19.9523    0.0000 C   0  0  0  0  0  0  0  0  0  0  0  0
    2.4011   18.4290    0.0000 C   0  0  0  0  0  0  0  0  0  0  0  0
   15.9491    2.5510    0.0000 C   0  0  0  0  0  0  0  0  0  0  0  0
   15.7221   18.6952    0.0000 C   0  0  0  0  0  0  0  0  0  0  0  0
    1.8432   17.5991    0.0000 C   0  0  0  0  0  0  0  0  0  0  0  0
    0.8455   17.6674    0.0000 C   0  0  0  0  0  0  0  0  0  0  0  0
    2.2829   16.7010    0.0000 C   0  0  0  0  0  0  0  0  0  0  0  0
  1 27  1  0
  1 28  1  0
  1 31  2  0
  1 32  2  0
  2 29  1  0
  2 30  1  0
  2 33  2  0
  2 34  2  0
  3 80  2  0
  4 81  2  0
 95  5  1  0
  6 90  2  0
  7 92  2  0
108  8  1  0
  9 93  2  0
 10 94  2  0
 11107  2  0
 12109  2  0
 13113  2  0
 14116  2  0
 15125  2  0
 16129  2  0
 17131  2  0
 18140  2  0
155 19  1  0
156 20  1  0
 21149  2  0
 22150  2  0
 23152  2  0
 24153  2  0
 25154  2  0
 26165  2  0
 35 69  1  0
 35 80  1  0
 36 70  1  0
 36 81  1  0
 37 67  1  0
 37 93  1  0
 38 68  1  0
 38 94  1  0
 82 39  1  0
 39 86  1  0
 88 40  1  0
 40 91  1  0
 41 83  1  0
 41109  1  0
 85 42  1  6
 42107  1  0
 43 84  1  0
 43113  1  0
 44 90  1  0
 44 97  1  0
 45 92  1  0
 45 98  1  0
 89 46  1  6
 46116  1  0
 79 47  1  0
 47125  1  0
 87 48  1  0
 48140  1  0
 49126  1  0
 49129  1  0
 50127  1  0
 50131  1  0
117 51  1  0
 51153  1  0
 52118  1  0
 52149  1  0
 53120  1  0
 53152  1  0
138 54  1  1
 54150  1  0
139 55  1  1
 55154  1  0
133 56  1  0
 56165  1  0
 57128  1  0
 58130  1  0
 59134  1  0
 60137  1  0
 61145  1  0
 62147  1  0
 63157  1  0
 64159  1  0
 65160  1  0
 66161  1  0
 67 71  1  6
 67 80  1  0
 68 72  1  6
 68 81  1  0
 69 73  1  1
 69 90  1  0
 70 74  1  1
 70 92  1  0
 71 75  1  0
 72 76  1  0
 73 77  1  0
 74 78  1  0
 75103  1  0
 75104  1  0
 76105  1  0
 76106  1  0
 77111  1  0
 77112  1  0
 78114  1  0
 78115  1  0
 79 86  1  1
 79 95  1  0
 82100  1  1
 82107  1  0
 83 93  1  0
 83101  1  1
 84 94  1  0
 84102  1  1
 85 96  1  0
 85109  1  0
 87 91  1  1
 87108  1  0
 88110  1  1
 88116  1  0
 89 99  1  0
 89113  1  0
 95135  1  1
 96118  1  0
 97122  1  1
 97129  1  0
 98123  1  1
 98131  1  0
 99120  1  0
100128  1  0
101130  1  0
102134  1  0
108143  1  1
110137  1  0
117125  1  0
117136  1  1
119121  1  0
119141  1  0
119151  1  0
121124  1  0
122145  1  0
123147  1  0
124132  1  0
126144  1  1
126150  1  0
127146  1  1
127154  1  0
132142  1  0
133140  1  0
133148  1  1
136157  1  0
138149  1  0
138155  1  0
139152  1  0
139156  1  0
141158  1  0
142153  1  0
144159  1  0
146160  1  0
148161  1  0
155167  1  6
156168  1  6
162163  1  0
162164  1  0
163165  1  0
164166  1  0
166169  1  0
169170  1  0
169171  1  0
M  END
>  <PUBCHEM_COMPOUND_CID>  (1) 
71457944

>  <PUBCHEM_COMPOUND_CANONICALIZED>  (1) 
1

>  <PUBCHEM_CACTVS_COMPLEXITY>  (1) 
4040

>  <PUBCHEM_CACTVS_HBOND_ACCEPTOR>  (1) 
44

>  <PUBCHEM_CACTVS_HBOND_DONOR>  (1) 
40

>  <PUBCHEM_CACTVS_ROTATABLE_BOND>  (1) 
59

>  <PUBCHEM_CACTVS_SUBSKEYS>  (1) 
AAADcfB//gBgAAAAAAAAAAAAAAAAAAAAAAAAAAAAAAAAAAAAAAAAHgAQCAAADTzhgAYCAALAAoAIAAEQEDAAAAAAAAAAAIGIAAACUBYAwCAUQAACNgCQAAEciMCOAAAAAAAAAAAAAAAAAAAAAAAAAAAAAA==

>  <PUBCHEM_IUPAC_OPENEYE_NAME>  (1) 
N-[(1S)-3-amino-1-[[(1S,2R)-1-[[[(1S)-3-amino-1-[[(3S,6S,9S,12S,15R,18S,21S)-6,9,18-tris(2-aminoethyl)-3-[(1R)-1-hydroxyethyl]-12,15-diisobutyl-2,5,8,11,14,17,20-heptaoxo-1,4,7,10,13,16,19-heptazacyclotricos-21-yl]carbamoyl]propyl]amino]methyl]-2-hydroxy-propyl]carbamoyl]propyl]-6-methyl-heptanamide;N-[(1S)-3-amino-1-[[(1S,2R)-1-[[[(1S)-3-amino-1-[[(3S,6S,9S,12S,15R,18S,21S)-6,9,18-tris(2-aminoethyl)-3-[(1R)-1-hydroxyethyl]-12,15-diisobutyl-2,5,8,11,14,17,20-heptaoxo-1,4,7,10,13,16,19-heptazacyclotricos-21-yl]carbamoyl]propyl]amino]methyl]-2-hydroxy-propyl]carbamoyl]propyl]-6-methyl-octanamide;sulfuric acid

>  <PUBCHEM_IUPAC_CAS_NAME>  (1) 
N-[(2S)-4-amino-1-[[(2S,3R)-1-[[(2S)-4-amino-1-oxo-1-[[(3S,6S,9S,12S,15R,18S,21S)-6,9,18-tris(2-aminoethyl)-3-[(1R)-1-hydroxyethyl]-12,15-bis(2-methylpropyl)-2,5,8,11,14,17,20-heptaoxo-1,4,7,10,13,16,19-heptazacyclotricos-21-yl]amino]butan-2-yl]amino]-3-hydroxybutan-2-yl]amino]-1-oxobutan-2-yl]-6-methylheptanamide;N-[(2S)-4-amino-1-[[(2S,3R)-1-[[(2S)-4-amino-1-oxo-1-[[(3S,6S,9S,12S,15R,18S,21S)-6,9,18-tris(2-aminoethyl)-3-[(1R)-1-hydroxyethyl]-12,15-bis(2-methylpropyl)-2,5,8,11,14,17,20-heptaoxo-1,4,7,10,13,16,19-heptazacyclotricos-21-yl]amino]butan-2-yl]amino]-3-hydroxybutan-2-yl]amino]-1-oxobutan-2-yl]-6-methyloctanamide;sulfuric acid

>  <PUBCHEM_IUPAC_NAME_MARKUP>  (1) 
<I>N</I>-[(2<I>S</I>)-4-amino-1-[[(2<I>S</I>,3<I>R</I>)-1-[[(2<I>S</I>)-4-amino-1-oxo-1-[[(3<I>S</I>,6<I>S</I>,9<I>S</I>,12<I>S</I>,15<I>R</I>,18<I>S</I>,21<I>S</I>)-6,9,18-tris(2-aminoethyl)-3-[(1<I>R</I>)-1-hydroxyethyl]-12,15-bis(2-methylpropyl)-2,5,8,11,14,17,20-heptaoxo-1,4,7,10,13,16,19-heptazacyclotricos-21-yl]amino]butan-2-yl]amino]-3-hydroxybutan-2-yl]amino]-1-oxobutan-2-yl]-6-methylheptanamide;<I>N</I>-[(2<I>S</I>)-4-amino-1-[[(2<I>S</I>,3<I>R</I>)-1-[[(2<I>S</I>)-4-amino-1-oxo-1-[[(3<I>S</I>,6<I>S</I>,9<I>S</I>,12<I>S</I>,15<I>R</I>,18<I>S</I>,21<I>S</I>)-6,9,18-tris(2-aminoethyl)-3-[(1<I>R</I>)-1-hydroxyethyl]-12,15-bis(2-methylpropyl)-2,5,8,11,14,17,20-heptaoxo-1,4,7,10,13,16,19-heptazacyclotricos-21-yl]amino]butan-2-yl]amino]-3-hydroxybutan-2-yl]amino]-1-oxobutan-2-yl]-6-methyloctanamide;sulfuric acid

>  <PUBCHEM_IUPAC_NAME>  (1) 
N-[(2S)-4-amino-1-[[(2S,3R)-1-[[(2S)-4-amino-1-oxo-1-[[(3S,6S,9S,12S,15R,18S,21S)-6,9,18-tris(2-aminoethyl)-3-[(1R)-1-hydroxyethyl]-12,15-bis(2-methylpropyl)-2,5,8,11,14,17,20-heptaoxo-1,4,7,10,13,16,19-heptazacyclotricos-21-yl]amino]butan-2-yl]amino]-3-hydroxybutan-2-yl]amino]-1-oxobutan-2-yl]-6-methylheptanamide;N-[(2S)-4-amino-1-[[(2S,3R)-1-[[(2S)-4-amino-1-oxo-1-[[(3S,6S,9S,12S,15R,18S,21S)-6,9,18-tris(2-aminoethyl)-3-[(1R)-1-hydroxyethyl]-12,15-bis(2-methylpropyl)-2,5,8,11,14,17,20-heptaoxo-1,4,7,10,13,16,19-heptazacyclotricos-21-yl]amino]butan-2-yl]amino]-3-hydroxybutan-2-yl]amino]-1-oxobutan-2-yl]-6-methyloctanamide;sulfuric acid

>  <PUBCHEM_IUPAC_SYSTEMATIC_NAME>  (1) 
N-[(2S)-4-azanyl-1-[[(2S,3R)-1-[[(2S)-4-azanyl-1-oxidanylidene-1-[[(3S,6S,9S,12S,15R,18S,21S)-6,9,18-tris(2-azanylethyl)-12,15-bis(2-methylpropyl)-3-[(1R)-1-oxidanylethyl]-2,5,8,11,14,17,20-heptakis(oxidanylidene)-1,4,7,10,13,16,19-heptazacyclotricos-21-yl]amino]butan-2-yl]amino]-3-oxidanyl-butan-2-yl]amino]-1-oxidanylidene-butan-2-yl]-6-methyl-heptanamide;N-[(2S)-4-azanyl-1-[[(2S,3R)-1-[[(2S)-4-azanyl-1-oxidanylidene-1-[[(3S,6S,9S,12S,15R,18S,21S)-6,9,18-tris(2-azanylethyl)-12,15-bis(2-methylpropyl)-3-[(1R)-1-oxidanylethyl]-2,5,8,11,14,17,20-heptakis(oxidanylidene)-1,4,7,10,13,16,19-heptazacyclotricos-21-yl]amino]butan-2-yl]amino]-3-oxidanyl-butan-2-yl]amino]-1-oxidanylidene-butan-2-yl]-6-methyl-octanamide;sulfuric acid

>  <PUBCHEM_IUPAC_TRADITIONAL_NAME>  (1) 
N-[(1S)-3-amino-1-[[(1S,2R)-1-[[[(1S)-3-amino-1-[[(3S,6S,9S,12S,15R,18S,21S)-6,9,18-tris(2-aminoethyl)-3-[(1R)-1-hydroxyethyl]-12,15-diisobutyl-2,5,8,11,14,17,20-heptaketo-1,4,7,10,13,16,19-heptazacyclotricos-21-yl]carbamoyl]propyl]amino]methyl]-2-hydroxy-propyl]carbamoyl]propyl]-6-methyl-caprylamide;N-[(1S)-3-amino-1-[[(1S,2R)-1-[[[(1S)-3-amino-1-[[(3S,6S,9S,12S,15R,18S,21S)-6,9,18-tris(2-aminoethyl)-3-[(1R)-1-hydroxyethyl]-12,15-diisobutyl-2,5,8,11,14,17,20-heptaketo-1,4,7,10,13,16,19-heptazacyclotricos-21-yl]carbamoyl]propyl]amino]methyl]-2-hydroxy-propyl]carbamoyl]propyl]-6-methyl-enanthamide;sulfuric acid

>  <PUBCHEM_IUPAC_INCHI>  (1) 
InChI=1S/C53H102N16O12.C52H100N16O12.2H2O4S/c1-9-31(6)12-10-11-13-43(72)61-35(15-21-55)46(74)68-42(32(7)70)28-60-34(14-20-54)45(73)65-39-19-25-59-53(81)44(33(8)71)69-50(78)38(18-24-58)63-47(75)36(16-22-56)64-51(79)40(26-29(2)3)67-52(80)41(27-30(4)5)66-48(76)37(17-23-57)62-49(39)77;1-28(2)11-9-10-12-42(71)60-34(14-20-54)45(73)67-41(31(7)69)27-59-33(13-19-53)44(72)64-38-18-24-58-52(80)43(32(8)70)68-49(77)37(17-23-57)62-46(74)35(15-21-55)63-50(78)39(25-29(3)4)66-51(79)40(26-30(5)6)65-47(75)36(16-22-56)61-48(38)76;2*1-5(2,3)4/h29-42,44,60,70-71H,9-28,54-58H2,1-8H3,(H,59,81)(H,61,72)(H,62,77)(H,63,75)(H,64,79)(H,65,73)(H,66,76)(H,67,80)(H,68,74)(H,69,78);28-41,43,59,69-70H,9-27,53-57H2,1-8H3,(H,58,80)(H,60,71)(H,61,76)(H,62,74)(H,63,78)(H,64,72)(H,65,75)(H,66,79)(H,67,73)(H,68,77);2*(H2,1,2,3,4)/t31?,32-,33-,34+,35+,36+,37+,38+,39+,40+,41-,42+,44+;31-,32-,33+,34+,35+,36+,37+,38+,39+,40-,41+,43+;;/m11../s1

>  <PUBCHEM_IUPAC_INCHIKEY>  (1) 
ZESIAEVDVPWEKB-ORCFLVBFSA-N

>  <PUBCHEM_EXACT_MASS>  (1) 
2492.4950897

>  <PUBCHEM_MOLECULAR_FORMULA>  (1) 
C105H206N32O32S2

>  <PUBCHEM_MOLECULAR_WEIGHT>  (1) 
2493.1

>  <PUBCHEM_OPENEYE_CAN_SMILES>  (1) 
CCC(C)CCCCC(=O)NC(CCN)C(=O)NC(CNC(CCN)C(=O)NC1CCNC(=O)C(NC(=O)C(NC(=O)C(NC(=O)C(NC(=O)C(NC(=O)C(NC1=O)CCN)CC(C)C)CC(C)C)CCN)CCN)C(C)O)C(C)O.CC(C)CCCCC(=O)NC(CCN)C(=O)NC(CNC(CCN)C(=O)NC1CCNC(=O)C(NC(=O)C(NC(=O)C(NC(=O)C(NC(=O)C(NC(=O)C(NC1=O)CCN)CC(C)C)CC(C)C)CCN)CCN)C(C)O)C(C)O.OS(=O)(=O)O.OS(=O)(=O)O

>  <PUBCHEM_OPENEYE_ISO_SMILES>  (1) 
CCC(C)CCCCC(=O)N[C@@H](CCN)C(=O)N[C@@H](CN[C@@H](CCN)C(=O)N[C@H]1CCNC(=O)[C@@H](NC(=O)[C@@H](NC(=O)[C@@H](NC(=O)[C@@H](NC(=O)[C@H](NC(=O)[C@@H](NC1=O)CCN)CC(C)C)CC(C)C)CCN)CCN)[C@@H](C)O)[C@@H](C)O.C[C@H]([C@H]1C(=O)NCC[C@@H](C(=O)N[C@H](C(=O)N[C@@H](C(=O)N[C@H](C(=O)N[C@H](C(=O)N[C@H](C(=O)N1)CCN)CCN)CC(C)C)CC(C)C)CCN)NC(=O)[C@H](CCN)NC[C@@H]([C@@H](C)O)NC(=O)[C@H](CCN)NC(=O)CCCCC(C)C)O.OS(=O)(=O)O.OS(=O)(=O)O

>  <PUBCHEM_CACTVS_TPSA>  (1) 
1110

>  <PUBCHEM_MONOISOTOPIC_WEIGHT>  (1) 
2491.4917349

>  <PUBCHEM_TOTAL_CHARGE>  (1) 
0

>  <PUBCHEM_HEAVY_ATOM_COUNT>  (1) 
171

>  <PUBCHEM_ATOM_DEF_STEREO_COUNT>  (1) 
24

>  <PUBCHEM_ATOM_UDEF_STEREO_COUNT>  (1) 
1

>  <PUBCHEM_BOND_DEF_STEREO_COUNT>  (1) 
0

>  <PUBCHEM_BOND_UDEF_STEREO_COUNT>  (1) 
0

>  <PUBCHEM_ISOTOPIC_ATOM_COUNT>  (1) 
0

>  <PUBCHEM_COMPONENT_COUNT>  (1) 
4

>  <PUBCHEM_CACTVS_TAUTO_COUNT>  (1) 
-1

>  <PUBCHEM_COORDINATE_TYPE>  (1) 
1
5
255

>  <PUBCHEM_BONDANNOTATIONS>  (1) 
119  151  3
126  144  5
127  146  5
138  286  6
139  287  6
155  19  6
156  20  6
82  39  5
88  40  5
85  42  6
89  46  6
79  47  5
87  48  5
95  5  5
117  51  5
133  56  5
67  71  6
68  72  6
69  73  5
70  74  5
108  8  5
83  101  5
84  102  5
97  122  5
98  123  5

$$$$
