Trelagliptin
  -OEChem-12182004373D

 46 48  0     1  0  0  0  0  0999 V2000
    2.6586    1.0233   -3.0811 F   0  0  0  0  0  0  0  0  0  0  0  0
    0.6757    2.8803    1.5822 O   0  0  0  0  0  0  0  0  0  0  0  0
   -3.3403    3.1631   -0.7533 O   0  0  0  0  0  0  0  0  0  0  0  0
   -1.4137   -1.0301   -0.1217 N   0  0  3  0  0  0  0  0  0  0  0  0
   -0.3192    0.9448    0.7628 N   0  0  0  0  0  0  0  0  0  0  0  0
   -3.5725   -3.7845    1.1855 N   0  0  0  0  0  0  0  0  0  0  0  0
   -1.3310    3.0796    0.4404 N   0  0  0  0  0  0  0  0  0  0  0  0
    3.2625   -1.9884    2.8956 N   0  0  0  0  0  0  0  0  0  0  0  0
   -3.0495   -2.8255    0.2141 C   0  0  1  0  0  0  0  0  0  0  0  0
   -1.9813   -1.9436    0.8736 C   0  0  0  0  0  0  0  0  0  0  0  0
   -2.4757   -3.5538   -1.0090 C   0  0  0  0  0  0  0  0  0  0  0  0
   -1.8546   -2.5553   -1.9860 C   0  0  0  0  0  0  0  0  0  0  0  0
   -0.8179   -1.6728   -1.2938 C   0  0  0  0  0  0  0  0  0  0  0  0
   -1.3640    0.3196    0.0729 C   0  0  0  0  0  0  0  0  0  0  0  0
   -2.3616    1.0714   -0.4221 C   0  0  0  0  0  0  0  0  0  0  0  0
    0.7623    0.1097    1.2914 C   0  0  0  0  0  0  0  0  0  0  0  0
   -0.2536    2.3369    0.9751 C   0  0  0  0  0  0  0  0  0  0  0  0
   -2.4015    2.5365   -0.2664 C   0  0  0  0  0  0  0  0  0  0  0  0
    1.8781   -0.0602    0.2951 C   0  0  0  0  0  0  0  0  0  0  0  0
   -1.2972    4.5245    0.6419 C   0  0  0  0  0  0  0  0  0  0  0  0
    3.0029   -0.8171    0.5992 C   0  0  0  0  0  0  0  0  0  0  0  0
    1.7544    0.5630   -0.9412 C   0  0  0  0  0  0  0  0  0  0  0  0
    4.0191   -0.9533   -0.3465 C   0  0  0  0  0  0  0  0  0  0  0  0
    2.7707    0.4272   -1.8869 C   0  0  0  0  0  0  0  0  0  0  0  0
    3.9031   -0.3310   -1.5895 C   0  0  0  0  0  0  0  0  0  0  0  0
    3.1464   -1.4642    1.8679 C   0  0  0  0  0  0  0  0  0  0  0  0
   -3.8804   -2.1906   -0.1188 H   0  0  0  0  0  0  0  0  0  0  0  0
   -1.1781   -2.5625    1.2943 H   0  0  0  0  0  0  0  0  0  0  0  0
   -2.4223   -1.3814    1.7073 H   0  0  0  0  0  0  0  0  0  0  0  0
   -3.2638   -4.1219   -1.5178 H   0  0  0  0  0  0  0  0  0  0  0  0
   -1.7097   -4.2760   -0.6975 H   0  0  0  0  0  0  0  0  0  0  0  0
   -1.3882   -3.0920   -2.8195 H   0  0  0  0  0  0  0  0  0  0  0  0
   -2.6472   -1.9259   -2.4099 H   0  0  0  0  0  0  0  0  0  0  0  0
   -0.4577   -0.9300   -2.0145 H   0  0  0  0  0  0  0  0  0  0  0  0
    0.0438   -2.2758   -0.9837 H   0  0  0  0  0  0  0  0  0  0  0  0
   -3.9148   -3.2880    2.0075 H   0  0  0  0  0  0  0  0  0  0  0  0
   -2.8202   -4.3887    1.5145 H   0  0  0  0  0  0  0  0  0  0  0  0
   -3.1889    0.6218   -0.9644 H   0  0  0  0  0  0  0  0  0  0  0  0
    0.3783   -0.8583    1.6240 H   0  0  0  0  0  0  0  0  0  0  0  0
    1.1697    0.6045    2.1823 H   0  0  0  0  0  0  0  0  0  0  0  0
   -2.1754    5.0221    0.2236 H   0  0  0  0  0  0  0  0  0  0  0  0
   -0.3946    4.9231    0.1676 H   0  0  0  0  0  0  0  0  0  0  0  0
   -1.2412    4.7305    1.7156 H   0  0  0  0  0  0  0  0  0  0  0  0
    0.9122    1.1744   -1.2422 H   0  0  0  0  0  0  0  0  0  0  0  0
    4.9086   -1.5408   -0.1309 H   0  0  0  0  0  0  0  0  0  0  0  0
    4.6939   -0.4370   -2.3263 H   0  0  0  0  0  0  0  0  0  0  0  0
  1 24  1  0  0  0  0
  2 17  2  0  0  0  0
  3 18  2  0  0  0  0
  4 10  1  0  0  0  0
  4 13  1  0  0  0  0
  4 14  1  0  0  0  0
  5 14  1  0  0  0  0
  5 16  1  0  0  0  0
  5 17  1  0  0  0  0
  6  9  1  0  0  0  0
  6 36  1  0  0  0  0
  6 37  1  0  0  0  0
  7 17  1  0  0  0  0
  7 18  1  0  0  0  0
  7 20  1  0  0  0  0
  8 26  3  0  0  0  0
  9 10  1  0  0  0  0
  9 11  1  0  0  0  0
  9 27  1  0  0  0  0
 10 28  1  0  0  0  0
 10 29  1  0  0  0  0
 11 12  1  0  0  0  0
 11 30  1  0  0  0  0
 11 31  1  0  0  0  0
 12 13  1  0  0  0  0
 12 32  1  0  0  0  0
 12 33  1  0  0  0  0
 13 34  1  0  0  0  0
 13 35  1  0  0  0  0
 14 15  2  0  0  0  0
 15 18  1  0  0  0  0
 15 38  1  0  0  0  0
 16 19  1  0  0  0  0
 16 39  1  0  0  0  0
 16 40  1  0  0  0  0
 19 21  2  0  0  0  0
 19 22  1  0  0  0  0
 20 41  1  0  0  0  0
 20 42  1  0  0  0  0
 20 43  1  0  0  0  0
 21 23  1  0  0  0  0
 21 26  1  0  0  0  0
 22 24  2  0  0  0  0
 22 44  1  0  0  0  0
 23 25  2  0  0  0  0
 23 45  1  0  0  0  0
 24 25  1  0  0  0  0
 25 46  1  0  0  0  0
M  END
> <PUBCHEM_COMPOUND_CID>
15983988

> <PUBCHEM_CONFORMER_RMSD>
0.8

> <PUBCHEM_CONFORMER_DIVERSEORDER>
1
36
6
31
5
9
42
17
43
44
47
22
34
26
46
8
27
2
28
10
20
15
40
38
4
18
21
24
45
25
3
30
14
41
37
32
23
29
16
39
33
13
19
12
35
11
7

> <PUBCHEM_MMFF94_PARTIAL_CHARGES>
30
1 -0.19
10 0.37
13 0.37
14 0.21
15 -0.14
16 0.44
17 0.69
18 0.62
19 -0.14
2 -0.57
20 0.3
21 0.07
22 -0.15
23 -0.15
24 0.19
25 -0.15
26 0.48
3 -0.57
36 0.36
37 0.36
38 0.15
4 -0.84
44 0.15
45 0.15
46 0.15
5 -0.47
6 -0.99
7 -0.42
8 -0.56
9 0.27

> <PUBCHEM_EFFECTIVE_ROTOR_COUNT>
4.2

> <PUBCHEM_PHARMACOPHORE_FEATURES>
9
1 2 acceptor
1 3 acceptor
1 4 cation
1 6 cation
1 6 donor
1 8 acceptor
6 19 21 22 23 24 25 rings
6 4 9 10 11 12 13 rings
6 5 7 14 15 17 18 rings

> <PUBCHEM_HEAVY_ATOM_COUNT>
26

> <PUBCHEM_ATOM_DEF_STEREO_COUNT>
1

> <PUBCHEM_ATOM_UDEF_STEREO_COUNT>
0

> <PUBCHEM_BOND_DEF_STEREO_COUNT>
0

> <PUBCHEM_BOND_UDEF_STEREO_COUNT>
0

> <PUBCHEM_ISOTOPIC_ATOM_COUNT>
0

> <PUBCHEM_COMPONENT_COUNT>
1

> <PUBCHEM_CACTVS_TAUTO_COUNT>
1

> <PUBCHEM_CONFORMER_ID>
00F3E57400000001

> <PUBCHEM_MMFF94_ENERGY>
64.8276

> <PUBCHEM_FEATURE_SELFOVERLAP>
45.671

> <PUBCHEM_SHAPE_FINGERPRINT>
10382601 240 17479448388466486890
11421498 54 18117852207560044366
11578080 2 17826473843760998852
11640471 11 18043269954573201444
11725454 13 16338587105214691018
12156800 1 14250003208261312774
12160290 23 18201154360912035131
12553582 1 18197216064501128982
12714826 92 18272102624631634335
12788726 201 18334863818061067971
13009979 54 18260536810891621362
13149001 5 18200012006875361221
133893 2 17335608091531045799
13583140 156 16880226349667597600
14787075 74 18048314746055140080
14863182 85 17692526719874568625
15664445 248 17688876753777246901
16752209 62 18340483374687806063
1813 80 17983875646004977095
20567600 347 17696460798448742421
20600515 1 17984956264277405224
20645476 183 18042694905153198353
20739085 24 17182209757284686433
20905425 154 18055620961729623784
21731516 1 18198058286096921502
22907989 373 18339380603211520981
23419403 2 15521981098865172464
23557571 272 18272644658584759136
23559900 14 18058722482747872002
23598288 3 18408605842158272259
23728640 28 18123448523828847347
352729 6 18193280680888964865
4409770 3 18269850743382154823
497634 4 15978415803934146092
57527293 21 17487881497329957738
57527358 35 16516262734219176349

> <PUBCHEM_SHAPE_MULTIPOLES>
491.15
6.33
5.11
2.18
3.52
2.84
-0.26
-3.97
-0.52
-7
0.96
2.28
-0.9
-0.78

> <PUBCHEM_SHAPE_SELFOVERLAP>
1050.819

> <PUBCHEM_SHAPE_VOLUME>
271.1

> <PUBCHEM_COORDINATE_TYPE>
2
5
10

$$$$
