Edoxaban
  -OEChem-01222105373D

 67 70  0     1  0  0  0  0  0999 V2000
   -7.9274    1.1070    0.9534 Cl  0  0  0  0  0  0  0  0  0  0  0  0
   -0.3188   -3.1018   -2.1954 S   0  0  0  0  0  0  0  0  0  0  0  0
    6.3105    1.2936   -0.7796 O   0  0  0  0  0  0  0  0  0  0  0  0
    1.1128   -0.5266   -2.7540 O   0  0  0  0  0  0  0  0  0  0  0  0
    0.0897    4.2652   -1.4203 O   0  0  0  0  0  0  0  0  0  0  0  0
   -2.1930    4.7198    0.1993 O   0  0  0  0  0  0  0  0  0  0  0  0
    1.3943    0.1270   -0.5699 N   0  0  0  0  0  0  0  0  0  0  0  0
    0.4122    2.7054    0.3042 N   0  0  0  0  0  0  0  0  0  0  0  0
    6.4171   -0.2058    0.9935 N   0  0  0  0  0  0  0  0  0  0  0  0
   -2.2041   -5.6917    0.3009 N   0  0  2  0  0  0  0  0  0  0  0  0
    0.1187   -2.2063    0.2007 N   0  0  0  0  0  0  0  0  0  0  0  0
   -2.3500    2.3937   -0.2201 N   0  0  0  0  0  0  0  0  0  0  0  0
   -4.0941    0.8020   -0.0859 N   0  0  0  0  0  0  0  0  0  0  0  0
    2.0967    1.3509   -0.8918 C   0  0  1  0  0  0  0  0  0  0  0  0
    1.8266    2.4649    0.1355 C   0  0  2  0  0  0  0  0  0  0  0  0
    4.2748    0.8081    0.3160 C   0  0  2  0  0  0  0  0  0  0  0  0
    3.5992    1.0835   -1.0323 C   0  0  0  0  0  0  0  0  0  0  0  0
    2.4988    2.1862    1.4842 C   0  0  0  0  0  0  0  0  0  0  0  0
    3.9939    1.9240    1.3236 C   0  0  0  0  0  0  0  0  0  0  0  0
    5.7550    0.6595    0.1216 C   0  0  0  0  0  0  0  0  0  0  0  0
    0.9402   -0.7485   -1.5542 C   0  0  0  0  0  0  0  0  0  0  0  0
   -0.2963    3.5759   -0.4899 C   0  0  0  0  0  0  0  0  0  0  0  0
    0.2874   -1.9398   -1.0780 C   0  0  0  0  0  0  0  0  0  0  0  0
    5.7192   -0.9375    2.0476 C   0  0  0  0  0  0  0  0  0  0  0  0
    7.8530   -0.4423    0.9159 C   0  0  0  0  0  0  0  0  0  0  0  0
   -0.5327   -3.4142    0.3092 C   0  0  0  0  0  0  0  0  0  0  0  0
   -0.8531   -4.0343   -0.8798 C   0  0  0  0  0  0  0  0  0  0  0  0
   -0.9021   -4.0096    1.6210 C   0  0  0  0  0  0  0  0  0  0  0  0
   -1.5384   -5.3562   -0.9816 C   0  0  0  0  0  0  0  0  0  0  0  0
   -1.2999   -5.4945    1.4563 C   0  0  0  0  0  0  0  0  0  0  0  0
   -1.7505    3.6318   -0.1296 C   0  0  0  0  0  0  0  0  0  0  0  0
   -2.7074   -7.0642    0.2657 C   0  0  0  0  0  0  0  0  0  0  0  0
   -3.6988    2.0790    0.0647 C   0  0  0  0  0  0  0  0  0  0  0  0
   -4.5088    3.1164    0.4766 C   0  0  0  0  0  0  0  0  0  0  0  0
   -5.8374    2.8176    0.7579 C   0  0  0  0  0  0  0  0  0  0  0  0
   -5.3919    0.5498    0.1966 C   0  0  0  0  0  0  0  0  0  0  0  0
   -6.2953    1.5122    0.6178 C   0  0  0  0  0  0  0  0  0  0  0  0
    1.7236    1.6895   -1.8673 H   0  0  0  0  0  0  0  0  0  0  0  0
    2.2636    3.3909   -0.2638 H   0  0  0  0  0  0  0  0  0  0  0  0
    3.8450   -0.1312    0.6793 H   0  0  0  0  0  0  0  0  0  0  0  0
    3.7788    0.2435   -1.7159 H   0  0  0  0  0  0  0  0  0  0  0  0
    4.0527    1.9651   -1.5055 H   0  0  0  0  0  0  0  0  0  0  0  0
    2.3510    3.0419    2.1548 H   0  0  0  0  0  0  0  0  0  0  0  0
    2.0277    1.3275    1.9788 H   0  0  0  0  0  0  0  0  0  0  0  0
    4.4811    2.8499    0.9884 H   0  0  0  0  0  0  0  0  0  0  0  0
    4.4288    1.7041    2.3039 H   0  0  0  0  0  0  0  0  0  0  0  0
    1.2727   -0.1242    0.4070 H   0  0  0  0  0  0  0  0  0  0  0  0
   -0.0828    2.1669    1.0098 H   0  0  0  0  0  0  0  0  0  0  0  0
    5.3144   -1.8564    1.6130 H   0  0  0  0  0  0  0  0  0  0  0  0
    4.9120   -0.3659    2.5029 H   0  0  0  0  0  0  0  0  0  0  0  0
    6.4246   -1.2017    2.8419 H   0  0  0  0  0  0  0  0  0  0  0  0
    8.2957    0.1037    0.0790 H   0  0  0  0  0  0  0  0  0  0  0  0
    8.0282   -1.5131    0.7783 H   0  0  0  0  0  0  0  0  0  0  0  0
    8.3183   -0.1058    1.8468 H   0  0  0  0  0  0  0  0  0  0  0  0
   -1.7471   -3.4470    2.0359 H   0  0  0  0  0  0  0  0  0  0  0  0
   -0.0675   -3.9269    2.3257 H   0  0  0  0  0  0  0  0  0  0  0  0
   -0.7940   -6.1196   -1.2431 H   0  0  0  0  0  0  0  0  0  0  0  0
   -2.2906   -5.3255   -1.7787 H   0  0  0  0  0  0  0  0  0  0  0  0
   -0.3968   -6.1090    1.3380 H   0  0  0  0  0  0  0  0  0  0  0  0
   -1.7913   -5.8160    2.3829 H   0  0  0  0  0  0  0  0  0  0  0  0
   -3.2641   -7.2929    1.1813 H   0  0  0  0  0  0  0  0  0  0  0  0
   -3.4061   -7.1963   -0.5678 H   0  0  0  0  0  0  0  0  0  0  0  0
   -1.9003   -7.7981    0.1604 H   0  0  0  0  0  0  0  0  0  0  0  0
   -1.7854    1.6023   -0.5197 H   0  0  0  0  0  0  0  0  0  0  0  0
   -4.2205    4.1467    0.6056 H   0  0  0  0  0  0  0  0  0  0  0  0
   -6.5059    3.6098    1.0849 H   0  0  0  0  0  0  0  0  0  0  0  0
   -5.6874   -0.4871    0.0674 H   0  0  0  0  0  0  0  0  0  0  0  0
  1 37  1  0  0  0  0
  2 23  1  0  0  0  0
  2 27  1  0  0  0  0
  3 20  2  0  0  0  0
  4 21  2  0  0  0  0
  5 22  2  0  0  0  0
  6 31  2  0  0  0  0
  7 14  1  0  0  0  0
  7 21  1  0  0  0  0
  7 47  1  0  0  0  0
  8 15  1  0  0  0  0
  8 22  1  0  0  0  0
  8 48  1  0  0  0  0
  9 20  1  0  0  0  0
  9 24  1  0  0  0  0
  9 25  1  0  0  0  0
 10 29  1  0  0  0  0
 10 30  1  0  0  0  0
 10 32  1  0  0  0  0
 11 23  2  0  0  0  0
 11 26  1  0  0  0  0
 12 31  1  0  0  0  0
 12 33  1  0  0  0  0
 12 64  1  0  0  0  0
 13 33  2  0  0  0  0
 13 36  1  0  0  0  0
 14 15  1  0  0  0  0
 14 17  1  0  0  0  0
 14 38  1  0  0  0  0
 15 18  1  0  0  0  0
 15 39  1  0  0  0  0
 16 17  1  0  0  0  0
 16 19  1  0  0  0  0
 16 20  1  0  0  0  0
 16 40  1  0  0  0  0
 17 41  1  0  0  0  0
 17 42  1  0  0  0  0
 18 19  1  0  0  0  0
 18 43  1  0  0  0  0
 18 44  1  0  0  0  0
 19 45  1  0  0  0  0
 19 46  1  0  0  0  0
 21 23  1  0  0  0  0
 22 31  1  0  0  0  0
 24 49  1  0  0  0  0
 24 50  1  0  0  0  0
 24 51  1  0  0  0  0
 25 52  1  0  0  0  0
 25 53  1  0  0  0  0
 25 54  1  0  0  0  0
 26 27  2  0  0  0  0
 26 28  1  0  0  0  0
 27 29  1  0  0  0  0
 28 30  1  0  0  0  0
 28 55  1  0  0  0  0
 28 56  1  0  0  0  0
 29 57  1  0  0  0  0
 29 58  1  0  0  0  0
 30 59  1  0  0  0  0
 30 60  1  0  0  0  0
 32 61  1  0  0  0  0
 32 62  1  0  0  0  0
 32 63  1  0  0  0  0
 33 34  1  0  0  0  0
 34 35  2  0  0  0  0
 34 65  1  0  0  0  0
 35 37  1  0  0  0  0
 35 66  1  0  0  0  0
 36 37  2  0  0  0  0
 36 67  1  0  0  0  0
M  END
> <PUBCHEM_COMPOUND_CID>
10280735

> <PUBCHEM_CONFORMER_RMSD>
1.2

> <PUBCHEM_CONFORMER_DIVERSEORDER>
1
34
35
26
45
29
32
21
15
18
4
19
40
48
8
60
51
46
28
27
56
36
12
22
30
53
2
9
20
10
3
13
50
37
41
38
11
54
24
43
7
47
6
14
16
25
44
55
57
52
33
42
49
17
23
39
31
59
58
5

> <PUBCHEM_MMFF94_PARTIAL_CHARGES>
40
1 -0.18
10 -0.81
11 -0.57
12 -0.55
13 -0.62
14 0.3
15 0.3
16 0.06
2 -0.08
20 0.57
21 0.71
22 0.63
23 0.29
24 0.3
25 0.3
26 0.05
27 -0.14
28 0.18
29 0.45
3 -0.57
30 0.27
31 0.63
32 0.27
33 0.43
34 -0.15
35 -0.15
36 0.16
37 0.18
4 -0.57
47 0.37
48 0.37
5 -0.57
6 -0.57
64 0.37
65 0.15
66 0.15
67 0.15
7 -0.73
8 -0.73
9 -0.66

> <PUBCHEM_EFFECTIVE_ROTOR_COUNT>
12

> <PUBCHEM_PHARMACOPHORE_FEATURES>
13
1 10 cation
1 11 acceptor
1 12 donor
1 3 acceptor
1 4 acceptor
1 5 acceptor
1 6 acceptor
1 7 donor
1 8 donor
5 2 11 23 26 27 rings
6 10 26 27 28 29 30 rings
6 13 33 34 35 36 37 rings
6 14 15 16 17 18 19 rings

> <PUBCHEM_HEAVY_ATOM_COUNT>
37

> <PUBCHEM_ATOM_DEF_STEREO_COUNT>
3

> <PUBCHEM_ATOM_UDEF_STEREO_COUNT>
0

> <PUBCHEM_BOND_DEF_STEREO_COUNT>
0

> <PUBCHEM_BOND_UDEF_STEREO_COUNT>
0

> <PUBCHEM_ISOTOPIC_ATOM_COUNT>
0

> <PUBCHEM_COMPONENT_COUNT>
1

> <PUBCHEM_CACTVS_TAUTO_COUNT>
12

> <PUBCHEM_CONFORMER_ID>
009CDF1F00000001

> <PUBCHEM_MMFF94_ENERGY>
77.728

> <PUBCHEM_FEATURE_SELFOVERLAP>
66.051

> <PUBCHEM_SHAPE_FINGERPRINT>
10074138 170 18268693039580101802
10653451 467 18198915707978217990
11991303 11 18333735727841840806
13692114 37 18343016722798796079
14866123 147 18339346510262362442
15320294 125 18186792553073227846
15347590 135 18131076983337945505
16728300 4 17606381173654673192
19311894 1 18265041603923521643
21133410 62 18188472641669888967
21344244 78 17331101206269109018
21583282 1 17532109343983644716
21703447 108 17906176144846752669
22223350 30 18127406980505790769
22956985 138 17686339763808367914
32027 91 16967732967388076741
3383291 50 18338508622330354450
4461854 278 18339095847396624345
5912855 24 18263359369299356588
86090 222 18199767885387193813

> <PUBCHEM_SHAPE_MULTIPOLES>
708.82
15.04
9.56
1.69
4.44
17.79
0.42
-11.99
-7.8
-12.22
-0.72
1.25
1.07
-0.57

> <PUBCHEM_SHAPE_SELFOVERLAP>
1479.902

> <PUBCHEM_SHAPE_VOLUME>
404.6

> <PUBCHEM_COORDINATE_TYPE>
2
5
10

$$$$
