MCSJ31_0006
  -OEChem-07172407422D

 51 54  0     1  0  0  0  0  0999 V2000
    6.0682   -0.2674    0.0000 O   0  0  0  0  0  0  0  0  0  0  0  0
    4.3198    2.7672    0.0000 O   0  0  0  0  0  0  0  0  0  0  0  0
    2.5381    1.7568    0.0000 O   0  0  0  0  0  0  0  0  0  0  0  0
    3.4022    1.2534    0.0000 N   0  0  0  0  0  0  0  0  0  0  0  0
    6.0682    1.7326    0.0000 C   0  0  3  0  0  0  0  0  0  0  0  0
    6.9343    1.2326    0.0000 C   0  0  3  0  0  0  0  0  0  0  0  0
    6.0522    2.7741    0.0000 C   0  0  3  0  0  0  0  0  0  0  0  0
    7.8443    1.7394    0.0000 C   0  0  0  0  0  0  0  0  0  0  0  0
    6.9502    3.3019    0.0000 C   0  0  0  0  0  0  0  0  0  0  0  0
    7.8523    2.7810    0.0000 C   0  0  0  0  0  0  0  0  0  0  0  0
    6.9343    0.2326    0.0000 C   0  0  3  0  0  0  0  0  0  0  0  0
    5.2022    1.2326    0.0000 C   0  0  0  0  0  0  0  0  0  0  0  0
    5.1804    3.2641    0.0000 C   0  0  0  0  0  0  0  0  0  0  0  0
    5.2022    0.2326    0.0000 C   0  0  0  0  0  0  0  0  0  0  0  0
    7.8003   -0.2674    0.0000 C   0  0  0  0  0  0  0  0  0  0  0  0
    4.3083    1.7673    0.0000 C   0  0  0  0  0  0  0  0  0  0  0  0
    4.3083   -0.3021    0.0000 C   0  0  0  0  0  0  0  0  0  0  0  0
    3.4022    0.2118    0.0000 C   0  0  0  0  0  0  0  0  0  0  0  0
    7.8003   -1.2674    0.0000 C   0  0  0  0  0  0  0  0  0  0  0  0
    4.3198   -1.3020    0.0000 C   0  0  0  0  0  0  0  0  0  0  0  0
    8.6663   -1.7674    0.0000 C   0  0  0  0  0  0  0  0  0  0  0  0
    3.4597   -1.8120    0.0000 C   0  0  0  0  0  0  0  0  0  0  0  0
    5.1916   -1.7920    0.0000 C   0  0  0  0  0  0  0  0  0  0  0  0
    3.4712   -2.8119    0.0000 C   0  0  0  0  0  0  0  0  0  0  0  0
    5.2032   -2.7919    0.0000 C   0  0  0  0  0  0  0  0  0  0  0  0
    4.3430   -3.3019    0.0000 C   0  0  0  0  0  0  0  0  0  0  0  0
    5.5289    2.0384    0.0000 H   0  0  0  0  0  0  0  0  0  0  0  0
    7.4688    0.9185    0.0000 H   0  0  0  0  0  0  0  0  0  0  0  0
    5.5195    2.4569    0.0000 H   0  0  0  0  0  0  0  0  0  0  0  0
    8.0488    1.1542    0.0000 H   0  0  0  0  0  0  0  0  0  0  0  0
    8.4559    1.8408    0.0000 H   0  0  0  0  0  0  0  0  0  0  0  0
    7.3475    3.7778    0.0000 H   0  0  0  0  0  0  0  0  0  0  0  0
    6.5493    3.7748    0.0000 H   0  0  0  0  0  0  0  0  0  0  0  0
    8.4623    2.6702    0.0000 H   0  0  0  0  0  0  0  0  0  0  0  0
    8.0659    3.3631    0.0000 H   0  0  0  0  0  0  0  0  0  0  0  0
    6.9343   -0.3874    0.0000 H   0  0  0  0  0  0  0  0  0  0  0  0
    5.4842    3.8045    0.0000 H   0  0  0  0  0  0  0  0  0  0  0  0
    4.6400    3.5678    0.0000 H   0  0  0  0  0  0  0  0  0  0  0  0
    4.8767    2.7236    0.0000 H   0  0  0  0  0  0  0  0  0  0  0  0
    8.3372    0.0426    0.0000 H   0  0  0  0  0  0  0  0  0  0  0  0
    2.8665   -0.1003    0.0000 H   0  0  0  0  0  0  0  0  0  0  0  0
    7.2634   -1.5774    0.0000 H   0  0  0  0  0  0  0  0  0  0  0  0
    8.3563   -2.3043    0.0000 H   0  0  0  0  0  0  0  0  0  0  0  0
    9.2033   -2.0774    0.0000 H   0  0  0  0  0  0  0  0  0  0  0  0
    8.9763   -1.2305    0.0000 H   0  0  0  0  0  0  0  0  0  0  0  0
    2.0000    1.4488    0.0000 H   0  0  0  0  0  0  0  0  0  0  0  0
    2.9192   -1.5082    0.0000 H   0  0  0  0  0  0  0  0  0  0  0  0
    5.7249   -1.4758    0.0000 H   0  0  0  0  0  0  0  0  0  0  0  0
    2.9379   -3.1281    0.0000 H   0  0  0  0  0  0  0  0  0  0  0  0
    5.7436   -3.0956    0.0000 H   0  0  0  0  0  0  0  0  0  0  0  0
    4.3501   -3.9218    0.0000 H   0  0  0  0  0  0  0  0  0  0  0  0
  1 11  1  0  0  0  0
  1 14  1  0  0  0  0
  2 16  2  0  0  0  0
  3  4  1  0  0  0  0
  3 46  1  0  0  0  0
  4 16  1  0  0  0  0
  4 18  1  0  0  0  0
  5  6  1  0  0  0  0
  5  7  1  0  0  0  0
  5 12  1  0  0  0  0
  5 27  1  0  0  0  0
  6  8  1  0  0  0  0
  6 11  1  0  0  0  0
  6 28  1  0  0  0  0
  7  9  1  0  0  0  0
  7 13  1  0  0  0  0
  7 29  1  0  0  0  0
  8 10  1  0  0  0  0
  8 30  1  0  0  0  0
  8 31  1  0  0  0  0
  9 10  1  0  0  0  0
  9 32  1  0  0  0  0
  9 33  1  0  0  0  0
 10 34  1  0  0  0  0
 10 35  1  0  0  0  0
 11 15  1  0  0  0  0
 11 36  1  0  0  0  0
 12 14  2  0  0  0  0
 12 16  1  0  0  0  0
 13 37  1  0  0  0  0
 13 38  1  0  0  0  0
 13 39  1  0  0  0  0
 14 17  1  0  0  0  0
 15 19  2  0  0  0  0
 15 40  1  0  0  0  0
 17 18  2  0  0  0  0
 17 20  1  0  0  0  0
 18 41  1  0  0  0  0
 19 21  1  0  0  0  0
 19 42  1  0  0  0  0
 20 22  2  0  0  0  0
 20 23  1  0  0  0  0
 21 43  1  0  0  0  0
 21 44  1  0  0  0  0
 21 45  1  0  0  0  0
 22 24  1  0  0  0  0
 22 47  1  0  0  0  0
 23 25  2  0  0  0  0
 23 48  1  0  0  0  0
 24 26  2  0  0  0  0
 24 49  1  0  0  0  0
 25 26  1  0  0  0  0
 25 50  1  0  0  0  0
 26 51  1  0  0  0  0
M  END
> <PUBCHEM_COMPOUND_CID>
9998082

> <PUBCHEM_COMPOUND_CANONICALIZED>
1

> <PUBCHEM_CACTVS_COMPLEXITY>
656

> <PUBCHEM_CACTVS_HBOND_ACCEPTOR>
3

> <PUBCHEM_CACTVS_HBOND_DONOR>
1

> <PUBCHEM_CACTVS_ROTATABLE_BOND>
2

> <PUBCHEM_CACTVS_SUBSKEYS>
AAADceB6MAAAAAAAAAAAAAAAAAAAAAAAAAAwYIEAAAAAAACBAAAAHgAECAAADRThmAYyAIIQBACIAiFWUACCCAAgIAAoiAEIAMgIJDKAsRCGMAAkwgEIqQeY3OLOgAAAAAAAAAAAAAQAACAAAAAAAAAAAA==

> <PUBCHEM_IUPAC_OPENEYE_NAME>
2-hydroxy-10-methyl-4-phenyl-6-[(E)-prop-1-enyl]-6a,7,8,9,10,10a-hexahydro-6H-isochromeno[4,3-c]pyridin-1-one

> <PUBCHEM_IUPAC_CAS_NAME>
2-hydroxy-10-methyl-4-phenyl-6-[(E)-prop-1-enyl]-6a,7,8,9,10,10a-hexahydro-6H-[2]benzopyrano[4,3-c]pyridin-1-one

> <PUBCHEM_IUPAC_NAME_MARKUP>
2-hydroxy-10-methyl-4-phenyl-6-[(<I>E</I>)-prop-1-enyl]-6<I>a</I>,7,8,9,10,10<I>a</I>-hexahydro-6<I>H</I>-isochromeno[4,3-c]pyridin-1-one

> <PUBCHEM_IUPAC_NAME>
2-hydroxy-10-methyl-4-phenyl-6-[(E)-prop-1-enyl]-6a,7,8,9,10,10a-hexahydro-6H-isochromeno[4,3-c]pyridin-1-one

> <PUBCHEM_IUPAC_SYSTEMATIC_NAME>
10-methyl-2-oxidanyl-4-phenyl-6-[(E)-prop-1-enyl]-6a,7,8,9,10,10a-hexahydro-6H-isochromeno[4,3-c]pyridin-1-one

> <PUBCHEM_IUPAC_TRADITIONAL_NAME>
2-hydroxy-10-methyl-4-phenyl-6-[(E)-prop-1-enyl]-6a,7,8,9,10,10a-hexahydro-6H-isochromeno[4,3-c]pyridin-1-one

> <PUBCHEM_IUPAC_INCHI>
InChI=1S/C22H25NO3/c1-3-8-18-16-12-7-9-14(2)19(16)20-21(26-18)17(13-23(25)22(20)24)15-10-5-4-6-11-15/h3-6,8,10-11,13-14,16,18-19,25H,7,9,12H2,1-2H3/b8-3+

> <PUBCHEM_IUPAC_INCHIKEY>
ZAWHOLMDNIHGEJ-FPYGCLRLSA-N

> <PUBCHEM_XLOGP3_AA>
3.8

> <PUBCHEM_EXACT_MASS>
351.18344366

> <PUBCHEM_MOLECULAR_FORMULA>
C22H25NO3

> <PUBCHEM_MOLECULAR_WEIGHT>
351.4

> <PUBCHEM_OPENEYE_CAN_SMILES>
CC=CC1C2CCCC(C2C3=C(O1)C(=CN(C3=O)O)C4=CC=CC=C4)C

> <PUBCHEM_OPENEYE_ISO_SMILES>
C/C=C/C1C2CCCC(C2C3=C(O1)C(=CN(C3=O)O)C4=CC=CC=C4)C

> <PUBCHEM_CACTVS_TPSA>
49.8

> <PUBCHEM_MONOISOTOPIC_WEIGHT>
351.18344366

> <PUBCHEM_TOTAL_CHARGE>
0

> <PUBCHEM_HEAVY_ATOM_COUNT>
26

> <PUBCHEM_ATOM_DEF_STEREO_COUNT>
0

> <PUBCHEM_ATOM_UDEF_STEREO_COUNT>
4

> <PUBCHEM_BOND_DEF_STEREO_COUNT>
1

> <PUBCHEM_BOND_UDEF_STEREO_COUNT>
0

> <PUBCHEM_ISOTOPIC_ATOM_COUNT>
0

> <PUBCHEM_COMPONENT_COUNT>
1

> <PUBCHEM_CACTVS_TAUTO_COUNT>
-1

> <PUBCHEM_COORDINATE_TYPE>
1
5
255

> <PUBCHEM_BONDANNOTATIONS>
11  15  3
12  14  8
12  16  8
14  17  8
17  18  8
20  22  8
20  23  8
22  24  8
23  25  8
24  26  8
25  26  8
4  16  8
4  18  8
5  12  3
6  8  3
7  13  3

$$$$
