Pepstatin A 
  -OEChem-12182004182D

111110  0     1  0  0  0  0  0999 V2000
   12.3923   -1.7500    0.0000 O   0  0  0  0  0  0  0  0  0  0  0  0
   19.3205   -1.7500    0.0000 O   0  0  0  0  0  0  0  0  0  0  0  0
    9.7942    0.7500    0.0000 O   0  0  0  0  0  0  0  0  0  0  0  0
   14.1244   -1.7500    0.0000 O   0  0  0  0  0  0  0  0  0  0  0  0
    7.1962   -1.7500    0.0000 O   0  0  0  0  0  0  0  0  0  0  0  0
   16.7224    0.7500    0.0000 O   0  0  0  0  0  0  0  0  0  0  0  0
   21.9186   -0.2500    0.0000 O   0  0  0  0  0  0  0  0  0  0  0  0
    4.5981    0.7500    0.0000 O   0  0  0  0  0  0  0  0  0  0  0  0
   21.0526   -1.7500    0.0000 O   0  0  0  0  0  0  0  0  0  0  0  0
   10.6603   -0.7500    0.0000 N   0  0  0  0  0  0  0  0  0  0  0  0
    8.0622   -0.2500    0.0000 N   0  0  0  0  0  0  0  0  0  0  0  0
   17.5885   -0.7500    0.0000 N   0  0  0  0  0  0  0  0  0  0  0  0
   14.9904   -0.2500    0.0000 N   0  0  0  0  0  0  0  0  0  0  0  0
    5.4641   -0.7500    0.0000 N   0  0  0  0  0  0  0  0  0  0  0  0
   11.5263   -0.2500    0.0000 C   0  0  1  0  0  0  0  0  0  0  0  0
   11.5263    0.7500    0.0000 C   0  0  0  0  0  0  0  0  0  0  0  0
   12.3923   -0.7500    0.0000 C   0  0  2  0  0  0  0  0  0  0  0  0
   12.3923    1.2500    0.0000 C   0  0  0  0  0  0  0  0  0  0  0  0
    8.9282   -0.7500    0.0000 C   0  0  1  0  0  0  0  0  0  0  0  0
   18.4545   -0.2500    0.0000 C   0  0  1  0  0  0  0  0  0  0  0  0
   13.2583   -0.2500    0.0000 C   0  0  0  0  0  0  0  0  0  0  0  0
    8.9282   -1.7500    0.0000 C   0  0  0  0  0  0  0  0  0  0  0  0
    9.7942   -0.2500    0.0000 C   0  0  0  0  0  0  0  0  0  0  0  0
   18.4545    0.7500    0.0000 C   0  0  0  0  0  0  0  0  0  0  0  0
   19.3205    1.2500    0.0000 C   0  0  0  0  0  0  0  0  0  0  0  0
   19.3205   -0.7500    0.0000 C   0  0  2  0  0  0  0  0  0  0  0  0
   12.3923    2.2500    0.0000 C   0  0  0  0  0  0  0  0  0  0  0  0
   13.2583    0.7500    0.0000 C   0  0  0  0  0  0  0  0  0  0  0  0
    6.3301   -0.2500    0.0000 C   0  0  1  0  0  0  0  0  0  0  0  0
   14.1244   -0.7500    0.0000 C   0  0  0  0  0  0  0  0  0  0  0  0
    6.3301    0.7500    0.0000 C   0  0  0  0  0  0  0  0  0  0  0  0
    7.1962   -0.7500    0.0000 C   0  0  0  0  0  0  0  0  0  0  0  0
   15.8564   -0.7500    0.0000 C   0  0  2  0  0  0  0  0  0  0  0  0
    8.0622   -2.2500    0.0000 C   0  0  0  0  0  0  0  0  0  0  0  0
    9.7942   -2.2500    0.0000 C   0  0  0  0  0  0  0  0  0  0  0  0
   20.1865   -0.2500    0.0000 C   0  0  0  0  0  0  0  0  0  0  0  0
   16.7224   -0.2500    0.0000 C   0  0  0  0  0  0  0  0  0  0  0  0
   19.3205    2.2500    0.0000 C   0  0  0  0  0  0  0  0  0  0  0  0
   20.1865    0.7500    0.0000 C   0  0  0  0  0  0  0  0  0  0  0  0
    5.4641    1.2500    0.0000 C   0  0  0  0  0  0  0  0  0  0  0  0
    7.1962    1.2500    0.0000 C   0  0  0  0  0  0  0  0  0  0  0  0
   15.8564   -1.7500    0.0000 C   0  0  0  0  0  0  0  0  0  0  0  0
    4.5981   -0.2500    0.0000 C   0  0  0  0  0  0  0  0  0  0  0  0
    3.7320   -0.7500    0.0000 C   0  0  0  0  0  0  0  0  0  0  0  0
   21.0526   -0.7500    0.0000 C   0  0  0  0  0  0  0  0  0  0  0  0
    2.8660   -0.2500    0.0000 C   0  0  0  0  0  0  0  0  0  0  0  0
    2.0000   -0.7500    0.0000 C   0  0  0  0  0  0  0  0  0  0  0  0
    2.8660    0.7500    0.0000 C   0  0  0  0  0  0  0  0  0  0  0  0
   10.9893    0.0600    0.0000 H   0  0  0  0  0  0  0  0  0  0  0  0
   11.3142    1.3326    0.0000 H   0  0  0  0  0  0  0  0  0  0  0  0
   10.9157    0.6423    0.0000 H   0  0  0  0  0  0  0  0  0  0  0  0
   11.8554   -1.0600    0.0000 H   0  0  0  0  0  0  0  0  0  0  0  0
   11.8554    1.5600    0.0000 H   0  0  0  0  0  0  0  0  0  0  0  0
    8.9282   -0.1300    0.0000 H   0  0  0  0  0  0  0  0  0  0  0  0
   10.6603   -1.3700    0.0000 H   0  0  0  0  0  0  0  0  0  0  0  0
   18.4545   -0.8700    0.0000 H   0  0  0  0  0  0  0  0  0  0  0  0
   13.6569    0.2249    0.0000 H   0  0  0  0  0  0  0  0  0  0  0  0
   12.8598    0.2249    0.0000 H   0  0  0  0  0  0  0  0  0  0  0  0
    9.4651   -1.4400    0.0000 H   0  0  0  0  0  0  0  0  0  0  0  0
   18.2424    1.3326    0.0000 H   0  0  0  0  0  0  0  0  0  0  0  0
   17.8439    0.6423    0.0000 H   0  0  0  0  0  0  0  0  0  0  0  0
   19.8574    1.5600    0.0000 H   0  0  0  0  0  0  0  0  0  0  0  0
   19.8574   -1.0600    0.0000 H   0  0  0  0  0  0  0  0  0  0  0  0
   13.0123    2.2500    0.0000 H   0  0  0  0  0  0  0  0  0  0  0  0
   12.3923    2.8700    0.0000 H   0  0  0  0  0  0  0  0  0  0  0  0
   11.7723    2.2500    0.0000 H   0  0  0  0  0  0  0  0  0  0  0  0
   12.9483    0.2131    0.0000 H   0  0  0  0  0  0  0  0  0  0  0  0
   13.7953    0.4400    0.0000 H   0  0  0  0  0  0  0  0  0  0  0  0
   13.5683    1.2869    0.0000 H   0  0  0  0  0  0  0  0  0  0  0  0
    8.0622    0.3700    0.0000 H   0  0  0  0  0  0  0  0  0  0  0  0
    5.7932    0.0600    0.0000 H   0  0  0  0  0  0  0  0  0  0  0  0
   17.5885   -1.3700    0.0000 H   0  0  0  0  0  0  0  0  0  0  0  0
    6.8671    0.4400    0.0000 H   0  0  0  0  0  0  0  0  0  0  0  0
   15.3195   -1.0600    0.0000 H   0  0  0  0  0  0  0  0  0  0  0  0
    7.7522   -1.7131    0.0000 H   0  0  0  0  0  0  0  0  0  0  0  0
    7.5252   -2.5600    0.0000 H   0  0  0  0  0  0  0  0  0  0  0  0
    8.3722   -2.7869    0.0000 H   0  0  0  0  0  0  0  0  0  0  0  0
    9.4842   -2.7869    0.0000 H   0  0  0  0  0  0  0  0  0  0  0  0
   10.3312   -2.5600    0.0000 H   0  0  0  0  0  0  0  0  0  0  0  0
   10.1042   -1.7131    0.0000 H   0  0  0  0  0  0  0  0  0  0  0  0
   12.9292   -2.0600    0.0000 H   0  0  0  0  0  0  0  0  0  0  0  0
   20.5851    0.2249    0.0000 H   0  0  0  0  0  0  0  0  0  0  0  0
   19.7880    0.2249    0.0000 H   0  0  0  0  0  0  0  0  0  0  0  0
   14.9904    0.3700    0.0000 H   0  0  0  0  0  0  0  0  0  0  0  0
   19.9405    2.2500    0.0000 H   0  0  0  0  0  0  0  0  0  0  0  0
   19.3205    2.8700    0.0000 H   0  0  0  0  0  0  0  0  0  0  0  0
   18.7005    2.2500    0.0000 H   0  0  0  0  0  0  0  0  0  0  0  0
   19.8765    0.2131    0.0000 H   0  0  0  0  0  0  0  0  0  0  0  0
   20.7235    0.4400    0.0000 H   0  0  0  0  0  0  0  0  0  0  0  0
   20.4965    1.2869    0.0000 H   0  0  0  0  0  0  0  0  0  0  0  0
    5.4641   -1.3700    0.0000 H   0  0  0  0  0  0  0  0  0  0  0  0
    5.7741    1.7869    0.0000 H   0  0  0  0  0  0  0  0  0  0  0  0
    4.9272    1.5600    0.0000 H   0  0  0  0  0  0  0  0  0  0  0  0
    5.1541    0.7131    0.0000 H   0  0  0  0  0  0  0  0  0  0  0  0
    7.5062    0.7131    0.0000 H   0  0  0  0  0  0  0  0  0  0  0  0
    7.7331    1.5600    0.0000 H   0  0  0  0  0  0  0  0  0  0  0  0
    6.8862    1.7869    0.0000 H   0  0  0  0  0  0  0  0  0  0  0  0
   15.2364   -1.7500    0.0000 H   0  0  0  0  0  0  0  0  0  0  0  0
   15.8564   -2.3700    0.0000 H   0  0  0  0  0  0  0  0  0  0  0  0
   16.4764   -1.7500    0.0000 H   0  0  0  0  0  0  0  0  0  0  0  0
   19.8574   -2.0600    0.0000 H   0  0  0  0  0  0  0  0  0  0  0  0
    3.3335   -1.2250    0.0000 H   0  0  0  0  0  0  0  0  0  0  0  0
    4.1306   -1.2250    0.0000 H   0  0  0  0  0  0  0  0  0  0  0  0
    2.8660   -0.8700    0.0000 H   0  0  0  0  0  0  0  0  0  0  0  0
    1.6900   -0.2131    0.0000 H   0  0  0  0  0  0  0  0  0  0  0  0
    1.4631   -1.0600    0.0000 H   0  0  0  0  0  0  0  0  0  0  0  0
    2.3100   -1.2869    0.0000 H   0  0  0  0  0  0  0  0  0  0  0  0
    3.4860    0.7500    0.0000 H   0  0  0  0  0  0  0  0  0  0  0  0
    2.8660    1.3700    0.0000 H   0  0  0  0  0  0  0  0  0  0  0  0
    2.2460    0.7500    0.0000 H   0  0  0  0  0  0  0  0  0  0  0  0
   22.4555   -0.5600    0.0000 H   0  0  0  0  0  0  0  0  0  0  0  0
 17  1  1  6  0  0  0
  1 81  1  0  0  0  0
 26  2  1  6  0  0  0
  2101  1  0  0  0  0
  3 23  2  0  0  0  0
  4 30  2  0  0  0  0
  5 32  2  0  0  0  0
  6 37  2  0  0  0  0
  7 45  1  0  0  0  0
  7111  1  0  0  0  0
  8 43  2  0  0  0  0
  9 45  2  0  0  0  0
 15 10  1  1  0  0  0
 10 23  1  0  0  0  0
 10 55  1  0  0  0  0
 19 11  1  6  0  0  0
 11 32  1  0  0  0  0
 11 70  1  0  0  0  0
 20 12  1  1  0  0  0
 12 37  1  0  0  0  0
 12 72  1  0  0  0  0
 13 30  1  0  0  0  0
 33 13  1  6  0  0  0
 13 84  1  0  0  0  0
 29 14  1  1  0  0  0
 14 43  1  0  0  0  0
 14 91  1  0  0  0  0
 15 16  1  0  0  0  0
 15 17  1  0  0  0  0
 15 49  1  0  0  0  0
 16 18  1  0  0  0  0
 16 50  1  0  0  0  0
 16 51  1  0  0  0  0
 17 21  1  0  0  0  0
 17 52  1  0  0  0  0
 18 27  1  0  0  0  0
 18 28  1  0  0  0  0
 18 53  1  0  0  0  0
 19 22  1  0  0  0  0
 19 23  1  0  0  0  0
 19 54  1  0  0  0  0
 20 24  1  0  0  0  0
 20 26  1  0  0  0  0
 20 56  1  0  0  0  0
 21 30  1  0  0  0  0
 21 57  1  0  0  0  0
 21 58  1  0  0  0  0
 22 34  1  0  0  0  0
 22 35  1  0  0  0  0
 22 59  1  0  0  0  0
 24 25  1  0  0  0  0
 24 60  1  0  0  0  0
 24 61  1  0  0  0  0
 25 38  1  0  0  0  0
 25 39  1  0  0  0  0
 25 62  1  0  0  0  0
 26 36  1  0  0  0  0
 26 63  1  0  0  0  0
 27 64  1  0  0  0  0
 27 65  1  0  0  0  0
 27 66  1  0  0  0  0
 28 67  1  0  0  0  0
 28 68  1  0  0  0  0
 28 69  1  0  0  0  0
 29 31  1  0  0  0  0
 29 32  1  0  0  0  0
 29 71  1  0  0  0  0
 31 40  1  0  0  0  0
 31 41  1  0  0  0  0
 31 73  1  0  0  0  0
 33 37  1  0  0  0  0
 33 42  1  0  0  0  0
 33 74  1  0  0  0  0
 34 75  1  0  0  0  0
 34 76  1  0  0  0  0
 34 77  1  0  0  0  0
 35 78  1  0  0  0  0
 35 79  1  0  0  0  0
 35 80  1  0  0  0  0
 36 45  1  0  0  0  0
 36 82  1  0  0  0  0
 36 83  1  0  0  0  0
 38 85  1  0  0  0  0
 38 86  1  0  0  0  0
 38 87  1  0  0  0  0
 39 88  1  0  0  0  0
 39 89  1  0  0  0  0
 39 90  1  0  0  0  0
 40 92  1  0  0  0  0
 40 93  1  0  0  0  0
 40 94  1  0  0  0  0
 41 95  1  0  0  0  0
 41 96  1  0  0  0  0
 41 97  1  0  0  0  0
 42 98  1  0  0  0  0
 42 99  1  0  0  0  0
 42100  1  0  0  0  0
 43 44  1  0  0  0  0
 44 46  1  0  0  0  0
 44102  1  0  0  0  0
 44103  1  0  0  0  0
 46 47  1  0  0  0  0
 46 48  1  0  0  0  0
 46104  1  0  0  0  0
 47105  1  0  0  0  0
 47106  1  0  0  0  0
 47107  1  0  0  0  0
 48108  1  0  0  0  0
 48109  1  0  0  0  0
 48110  1  0  0  0  0
M  END
> <PUBCHEM_COMPOUND_CID>
5478883

> <PUBCHEM_COMPOUND_CANONICALIZED>
1

> <PUBCHEM_CACTVS_COMPLEXITY>
1060

> <PUBCHEM_CACTVS_HBOND_ACCEPTOR>
9

> <PUBCHEM_CACTVS_HBOND_DONOR>
8

> <PUBCHEM_CACTVS_ROTATABLE_BOND>
22

> <PUBCHEM_CACTVS_SUBSKEYS>
AAADcfB/vAAAAAAAAAAAAAAAAAAAAAAAAAAAAAAAAAAAAAAAAAAAHgAQCAAADTzhgAYCCALAAgAIAAGQGAAAAAAAAAAAAIGIAAACUBYAgCAUQAAHNgCQAAG8yGCMAAAAAAAAAAAAAAAAAAAAAAAAAAAAAA==

> <PUBCHEM_IUPAC_OPENEYE_NAME>
(3S,4S)-3-hydroxy-4-[[(2S)-2-[[(3S,4S)-3-hydroxy-6-methyl-4-[[(2S)-3-methyl-2-[[(2S)-3-methyl-2-(3-methylbutanoylamino)butanoyl]amino]butanoyl]amino]heptanoyl]amino]propanoyl]amino]-6-methyl-heptanoic acid

> <PUBCHEM_IUPAC_CAS_NAME>
(3S,4S)-3-hydroxy-4-[[(2S)-2-[[(3S,4S)-3-hydroxy-6-methyl-4-[[(2S)-3-methyl-2-[[(2S)-3-methyl-2-[(3-methyl-1-oxobutyl)amino]-1-oxobutyl]amino]-1-oxobutyl]amino]-1-oxoheptyl]amino]-1-oxopropyl]amino]-6-methylheptanoic acid

> <PUBCHEM_IUPAC_NAME_MARKUP>
(3<I>S</I>,4<I>S</I>)-3-hydroxy-4-[[(2<I>S</I>)-2-[[(3<I>S</I>,4<I>S</I>)-3-hydroxy-6-methyl-4-[[(2<I>S</I>)-3-methyl-2-[[(2<I>S</I>)-3-methyl-2-(3-methylbutanoylamino)butanoyl]amino]butanoyl]amino]heptanoyl]amino]propanoyl]amino]-6-methylheptanoic acid

> <PUBCHEM_IUPAC_NAME>
(3S,4S)-3-hydroxy-4-[[(2S)-2-[[(3S,4S)-3-hydroxy-6-methyl-4-[[(2S)-3-methyl-2-[[(2S)-3-methyl-2-(3-methylbutanoylamino)butanoyl]amino]butanoyl]amino]heptanoyl]amino]propanoyl]amino]-6-methylheptanoic acid

> <PUBCHEM_IUPAC_SYSTEMATIC_NAME>
(3S,4S)-6-methyl-4-[[(2S)-2-[[(3S,4S)-6-methyl-4-[[(2S)-3-methyl-2-[[(2S)-3-methyl-2-(3-methylbutanoylamino)butanoyl]amino]butanoyl]amino]-3-oxidanyl-heptanoyl]amino]propanoyl]amino]-3-oxidanyl-heptanoic acid

> <PUBCHEM_IUPAC_TRADITIONAL_NAME>
(3S,4S)-3-hydroxy-4-[[(2S)-2-[[(3S,4S)-3-hydroxy-4-[[(2S)-2-[[(2S)-2-(isovalerylamino)-3-methyl-butanoyl]amino]-3-methyl-butanoyl]amino]-6-methyl-heptanoyl]amino]propanoyl]amino]-6-methyl-enanthic acid

> <PUBCHEM_IUPAC_INCHI>
InChI=1S/C34H63N5O9/c1-17(2)12-23(37-33(47)31(21(9)10)39-34(48)30(20(7)8)38-27(42)14-19(5)6)25(40)15-28(43)35-22(11)32(46)36-24(13-18(3)4)26(41)16-29(44)45/h17-26,30-31,40-41H,12-16H2,1-11H3,(H,35,43)(H,36,46)(H,37,47)(H,38,42)(H,39,48)(H,44,45)/t22-,23-,24-,25-,26-,30-,31-/m0/s1

> <PUBCHEM_IUPAC_INCHIKEY>
FAXGPCHRFPCXOO-LXTPJMTPSA-N

> <PUBCHEM_XLOGP3_AA>
3

> <PUBCHEM_EXACT_MASS>
685.462579

> <PUBCHEM_MOLECULAR_FORMULA>
C34H63N5O9

> <PUBCHEM_MOLECULAR_WEIGHT>
685.9

> <PUBCHEM_OPENEYE_CAN_SMILES>
CC(C)CC(C(CC(=O)O)O)NC(=O)C(C)NC(=O)CC(C(CC(C)C)NC(=O)C(C(C)C)NC(=O)C(C(C)C)NC(=O)CC(C)C)O

> <PUBCHEM_OPENEYE_ISO_SMILES>
C[C@@H](C(=O)N[C@@H](CC(C)C)[C@H](CC(=O)O)O)NC(=O)C[C@@H]([C@H](CC(C)C)NC(=O)[C@H](C(C)C)NC(=O)[C@H](C(C)C)NC(=O)CC(C)C)O

> <PUBCHEM_CACTVS_TPSA>
223

> <PUBCHEM_MONOISOTOPIC_WEIGHT>
685.462579

> <PUBCHEM_TOTAL_CHARGE>
0

> <PUBCHEM_HEAVY_ATOM_COUNT>
48

> <PUBCHEM_ATOM_DEF_STEREO_COUNT>
7

> <PUBCHEM_ATOM_UDEF_STEREO_COUNT>
0

> <PUBCHEM_BOND_DEF_STEREO_COUNT>
0

> <PUBCHEM_BOND_UDEF_STEREO_COUNT>
0

> <PUBCHEM_ISOTOPIC_ATOM_COUNT>
0

> <PUBCHEM_COMPONENT_COUNT>
1

> <PUBCHEM_CACTVS_TAUTO_COUNT>
-1

> <PUBCHEM_COORDINATE_TYPE>
1
5
255

> <PUBCHEM_BONDANNOTATIONS>
17  1  6
15  10  5
19  11  6
20  12  5
33  13  6
29  14  5
26  2  6

$$$$
