SV_J24_0001
  -OEChem-07172407052D

268271  0     1  0  0  0  0  0999 V2000
   10.8658    2.6716    0.0000 S   0  0  0  0  0  0  0  0  0  0  0  0
    8.1011    3.6948    0.0000 S   0  0  0  0  0  0  0  0  0  0  0  0
   11.7318    2.1716    0.0000 S   0  0  0  0  0  0  0  0  0  0  0  0
    8.5378    2.7952    0.0000 S   0  0  0  0  0  0  0  0  0  0  0  0
    9.5788    7.4214    0.0000 O   0  0  0  0  0  0  0  0  0  0  0  0
    9.9939    3.3279    0.0000 O   0  0  0  0  0  0  0  0  0  0  0  0
   15.1959    5.1716    0.0000 O   0  0  0  0  0  0  0  0  0  0  0  0
   14.3299    5.6716    0.0000 O   0  0  0  0  0  0  0  0  0  0  0  0
   15.1959    4.1716    0.0000 O   0  0  0  0  0  0  0  0  0  0  0  0
   13.4638    5.1716    0.0000 O   0  0  0  0  0  0  0  0  0  0  0  0
    8.5007   -0.3668    0.0000 O   0  0  0  0  0  0  0  0  0  0  0  0
    6.6670    4.6660    0.0000 O   0  0  0  0  0  0  0  0  0  0  0  0
   14.3299    3.6716    0.0000 O   0  0  0  0  0  0  0  0  0  0  0  0
    8.1734   -1.3118    0.0000 O   0  0  0  0  0  0  0  0  0  0  0  0
    9.4827   -0.1779    0.0000 O   0  0  0  0  0  0  0  0  0  0  0  0
   12.8179   -0.5320    0.0000 O   0  0  0  0  0  0  0  0  0  0  0  0
    5.9176    8.1929    0.0000 O   0  0  0  0  0  0  0  0  0  0  0  0
    6.2094   -4.3355    0.0000 O   0  0  0  0  0  0  0  0  0  0  0  0
   13.7379   -3.7685    0.0000 O   0  0  0  0  0  0  0  0  0  0  0  0
    9.1554   -6.4143    0.0000 O   0  0  0  0  0  0  0  0  0  0  0  0
    7.1914   -9.4380    0.0000 O   0  0  0  0  0  0  0  0  0  0  0  0
   10.0952    4.7386    0.0000 N   0  0  0  0  0  0  0  0  0  0  0  0
    8.7858    6.2504    0.0000 N   0  0  0  0  0  0  0  0  0  0  0  0
   16.0619    6.6716    0.0000 N   0  0  0  0  0  0  0  0  0  0  0  0
   16.9279    4.1716    0.0000 N   0  0  0  0  0  0  0  0  0  0  0  0
   11.7318    5.1716    0.0000 N   0  0  0  0  0  0  0  0  0  0  0  0
   13.4638    7.1716    0.0000 N   0  0  0  0  0  0  0  0  0  0  0  0
    6.5367   -0.7448    0.0000 N   0  0  0  0  0  0  0  0  0  0  0  0
   15.1959    2.1716    0.0000 N   0  0  0  0  0  0  0  0  0  0  0  0
    8.1734    1.3340    0.0000 N   0  0  0  0  0  0  0  0  0  0  0  0
    6.7910    6.3936    0.0000 N   0  0  0  0  0  0  0  0  0  0  0  0
   13.1365    1.2267    0.0000 N   0  0  0  0  0  0  0  0  0  0  0  0
   10.7920    0.9560    0.0000 N   0  0  0  0  0  0  0  0  0  0  0  0
    7.5187   -3.2016    0.0000 N   0  0  0  0  0  0  0  0  0  0  0  0
   20.3920    5.1716    0.0000 N   0  0  0  0  0  0  0  0  0  0  0  0
   16.9279   10.1716    0.0000 N   0  0  0  0  0  0  0  0  0  0  0  0
   17.7940   -0.3284    0.0000 N   0  0  0  0  0  0  0  0  0  0  0  0
    4.2455   -4.7134    0.0000 N   0  0  0  0  0  0  0  0  0  0  0  0
    4.3594    7.4365    0.0000 N   0  0  0  0  0  0  0  0  0  0  0  0
    7.5187   -5.8473    0.0000 N   0  0  0  0  0  0  0  0  0  0  0  0
   22.1241    5.1716    0.0000 N   0  0  0  0  0  0  0  0  0  0  0  0
   17.7940   11.6716    0.0000 N   0  0  0  0  0  0  0  0  0  0  0  0
   18.6600   -1.8284    0.0000 N   0  0  0  0  0  0  0  0  0  0  0  0
   21.2581    6.6716    0.0000 N   0  0  0  0  0  0  0  0  0  0  0  0
   16.0619   11.6716    0.0000 N   0  0  0  0  0  0  0  0  0  0  0  0
   19.5260   -0.3284    0.0000 N   0  0  0  0  0  0  0  0  0  0  0  0
    2.9362   -5.8473    0.0000 N   0  0  0  0  0  0  0  0  0  0  0  0
    2.6088   -4.1465    0.0000 N   0  0  0  0  0  0  0  0  0  0  0  0
    8.5007   -8.3041    0.0000 N   0  0  0  0  0  0  0  0  0  0  0  0
    8.5007  -10.9498    0.0000 N   0  0  0  0  0  0  0  0  0  0  0  0
   12.1013  -11.1388    0.0000 N   0  0  0  0  0  0  0  0  0  0  0  0
   13.7379  -11.7058    0.0000 N   0  0  0  0  0  0  0  0  0  0  0  0
   13.4106  -10.0049    0.0000 N   0  0  0  0  0  0  0  0  0  0  0  0
   11.0533    6.4594    0.0000 C   0  0  2  0  0  0  0  0  0  0  0  0
   10.4225    5.6835    0.0000 C   0  0  1  0  0  0  0  0  0  0  0  0
   10.6966    7.3937    0.0000 C   0  0  0  0  0  0  0  0  0  0  0  0
   12.0406    6.3012    0.0000 C   0  0  0  0  0  0  0  0  0  0  0  0
    9.7678    6.4394    0.0000 C   0  0  0  0  0  0  0  0  0  0  0  0
   16.9279    5.1716    0.0000 C   0  0  1  0  0  0  0  0  0  0  0  0
   15.1959    7.1716    0.0000 C   0  0  1  0  0  0  0  0  0  0  0  0
   11.7318    4.1716    0.0000 C   0  0  2  0  0  0  0  0  0  0  0  0
    6.8641    0.2001    0.0000 C   0  0  1  0  0  0  0  0  0  0  0  0
    6.2094    0.9560    0.0000 C   0  0  0  0  0  0  0  0  0  0  0  0
   16.0619    2.6716    0.0000 C   0  0  1  0  0  0  0  0  0  0  0  0
   17.7940    5.6716    0.0000 C   0  0  0  0  0  0  0  0  0  0  0  0
   10.7498    3.9826    0.0000 C   0  0  0  0  0  0  0  0  0  0  0  0
   15.1959    8.1716    0.0000 C   0  0  0  0  0  0  0  0  0  0  0  0
   12.5978    6.6716    0.0000 C   0  0  2  0  0  0  0  0  0  0  0  0
    8.2251    5.4224    0.0000 C   0  0  1  0  0  0  0  0  0  0  0  0
    5.2274    0.7671    0.0000 C   0  0  0  0  0  0  0  0  0  0  0  0
   10.1832    8.2518    0.0000 C   0  0  0  0  0  0  0  0  0  0  0  0
   16.9279    2.1716    0.0000 C   0  0  0  0  0  0  0  0  0  0  0  0
   16.0619    5.6716    0.0000 C   0  0  0  0  0  0  0  0  0  0  0  0
   14.3299    6.6716    0.0000 C   0  0  0  0  0  0  0  0  0  0  0  0
   18.6600    5.1716    0.0000 C   0  0  0  0  0  0  0  0  0  0  0  0
   16.0619    3.6716    0.0000 C   0  0  0  0  0  0  0  0  0  0  0  0
   16.0619    8.6716    0.0000 C   0  0  0  0  0  0  0  0  0  0  0  0
   10.8658    3.6716    0.0000 C   0  0  0  0  0  0  0  0  0  0  0  0
   12.5978    5.6716    0.0000 C   0  0  0  0  0  0  0  0  0  0  0  0
   11.7318    7.1716    0.0000 C   0  0  0  0  0  0  0  0  0  0  0  0
    9.1554    1.5230    0.0000 C   0  0  1  0  0  0  0  0  0  0  0  0
   13.4638    2.1716    0.0000 C   0  0  2  0  0  0  0  0  0  0  0  0
    7.8461    0.3891    0.0000 C   0  0  0  0  0  0  0  0  0  0  0  0
   16.9279    1.1716    0.0000 C   0  0  0  0  0  0  0  0  0  0  0  0
    6.8641   -2.4456    0.0000 C   0  0  2  0  0  0  0  0  0  0  0  0
    8.6618    4.5228    0.0000 C   0  0  0  0  0  0  0  0  0  0  0  0
    7.2277    5.4940    0.0000 C   0  0  0  0  0  0  0  0  0  0  0  0
   11.4467    0.2001    0.0000 C   0  0  1  0  0  0  0  0  0  0  0  0
    5.7936    6.4653    0.0000 C   0  0  1  0  0  0  0  0  0  0  0  0
   14.3299    2.6716    0.0000 C   0  0  0  0  0  0  0  0  0  0  0  0
    4.5728    1.5230    0.0000 C   0  0  0  0  0  0  0  0  0  0  0  0
    4.9001   -0.1779    0.0000 C   0  0  0  0  0  0  0  0  0  0  0  0
    7.1914   -1.5007    0.0000 C   0  0  0  0  0  0  0  0  0  0  0  0
    5.8821   -2.6346    0.0000 C   0  0  0  0  0  0  0  0  0  0  0  0
    5.2328    5.6373    0.0000 C   0  0  0  0  0  0  0  0  0  0  0  0
   19.5260    5.6716    0.0000 C   0  0  0  0  0  0  0  0  0  0  0  0
   16.0619    9.6716    0.0000 C   0  0  0  0  0  0  0  0  0  0  0  0
   12.5978    2.6716    0.0000 C   0  0  0  0  0  0  0  0  0  0  0  0
    9.4827    2.4679    0.0000 C   0  0  0  0  0  0  0  0  0  0  0  0
    9.8100    0.7671    0.0000 C   0  0  0  0  0  0  0  0  0  0  0  0
   11.1193   -0.7448    0.0000 C   0  0  0  0  0  0  0  0  0  0  0  0
   12.4286    0.3891    0.0000 C   0  0  0  0  0  0  0  0  0  0  0  0
   17.7940    0.6716    0.0000 C   0  0  0  0  0  0  0  0  0  0  0  0
   11.7318    8.1716    0.0000 C   0  0  0  0  0  0  0  0  0  0  0  0
    5.5548   -3.5795    0.0000 C   0  0  0  0  0  0  0  0  0  0  0  0
    4.2354    5.7089    0.0000 C   0  0  0  0  0  0  0  0  0  0  0  0
    5.6695    4.7377    0.0000 C   0  0  0  0  0  0  0  0  0  0  0  0
    5.3569    7.3649    0.0000 C   0  0  0  0  0  0  0  0  0  0  0  0
    4.5728   -3.7685    0.0000 C   0  0  0  0  0  0  0  0  0  0  0  0
   11.7740   -1.5007    0.0000 C   0  0  0  0  0  0  0  0  0  0  0  0
   10.8658    8.6716    0.0000 C   0  0  0  0  0  0  0  0  0  0  0  0
   12.5978    8.6716    0.0000 C   0  0  0  0  0  0  0  0  0  0  0  0
    7.1914   -4.1465    0.0000 C   0  0  0  0  0  0  0  0  0  0  0  0
   12.7560   -1.3118    0.0000 C   0  0  0  0  0  0  0  0  0  0  0  0
   11.4467   -2.4456    0.0000 C   0  0  0  0  0  0  0  0  0  0  0  0
   10.8658    9.6716    0.0000 C   0  0  0  0  0  0  0  0  0  0  0  0
   12.5978    9.6716    0.0000 C   0  0  0  0  0  0  0  0  0  0  0  0
    7.8461   -4.9024    0.0000 C   0  0  0  0  0  0  0  0  0  0  0  0
   21.2581    5.6716    0.0000 C   0  0  0  0  0  0  0  0  0  0  0  0
   16.9279   11.1716    0.0000 C   0  0  0  0  0  0  0  0  0  0  0  0
   11.7318   10.1716    0.0000 C   0  0  0  0  0  0  0  0  0  0  0  0
   18.6600   -0.8284    0.0000 C   0  0  0  0  0  0  0  0  0  0  0  0
   13.4106   -2.0677    0.0000 C   0  0  0  0  0  0  0  0  0  0  0  0
   12.1013   -3.2016    0.0000 C   0  0  0  0  0  0  0  0  0  0  0  0
   13.0833   -3.0126    0.0000 C   0  0  0  0  0  0  0  0  0  0  0  0
    3.2635   -4.9024    0.0000 C   0  0  0  0  0  0  0  0  0  0  0  0
    8.1734   -6.6033    0.0000 C   0  0  0  0  0  0  0  0  0  0  0  0
    7.8461   -7.5482    0.0000 C   0  0  0  0  0  0  0  0  0  0  0  0
    8.8280  -10.0049    0.0000 C   0  0  2  0  0  0  0  0  0  0  0  0
    8.1734   -9.2490    0.0000 C   0  0  0  0  0  0  0  0  0  0  0  0
    9.8100   -9.8160    0.0000 C   0  0  0  0  0  0  0  0  0  0  0  0
   10.4647  -10.5719    0.0000 C   0  0  0  0  0  0  0  0  0  0  0  0
   11.4467  -10.3829    0.0000 C   0  0  0  0  0  0  0  0  0  0  0  0
   13.0833  -10.9498    0.0000 C   0  0  0  0  0  0  0  0  0  0  0  0
   11.2744    5.8802    0.0000 H   0  0  0  0  0  0  0  0  0  0  0  0
   11.1651    5.2700    0.0000 H   0  0  0  0  0  0  0  0  0  0  0  0
   11.3135    7.3313    0.0000 H   0  0  0  0  0  0  0  0  0  0  0  0
   10.1389    7.1230    0.0000 H   0  0  0  0  0  0  0  0  0  0  0  0
    9.4863    4.6214    0.0000 H   0  0  0  0  0  0  0  0  0  0  0  0
   11.9425    5.6890    0.0000 H   0  0  0  0  0  0  0  0  0  0  0  0
   12.6528    6.2030    0.0000 H   0  0  0  0  0  0  0  0  0  0  0  0
   12.1388    6.9134    0.0000 H   0  0  0  0  0  0  0  0  0  0  0  0
   17.4649    4.8616    0.0000 H   0  0  0  0  0  0  0  0  0  0  0  0
   15.7328    7.4816    0.0000 H   0  0  0  0  0  0  0  0  0  0  0  0
   12.5665    4.3323    0.0000 H   0  0  0  0  0  0  0  0  0  0  0  0
    6.2552    0.0829    0.0000 H   0  0  0  0  0  0  0  0  0  0  0  0
    6.7415    1.2744    0.0000 H   0  0  0  0  0  0  0  0  0  0  0  0
    5.9883    1.5353    0.0000 H   0  0  0  0  0  0  0  0  0  0  0  0
   16.0619    2.0516    0.0000 H   0  0  0  0  0  0  0  0  0  0  0  0
   18.1925    6.1466    0.0000 H   0  0  0  0  0  0  0  0  0  0  0  0
   17.3954    6.1466    0.0000 H   0  0  0  0  0  0  0  0  0  0  0  0
   14.9838    8.7542    0.0000 H   0  0  0  0  0  0  0  0  0  0  0  0
   14.5853    8.0640    0.0000 H   0  0  0  0  0  0  0  0  0  0  0  0
   12.5978    7.2916    0.0000 H   0  0  0  0  0  0  0  0  0  0  0  0
    7.9544    5.9802    0.0000 H   0  0  0  0  0  0  0  0  0  0  0  0
    5.4304    1.3529    0.0000 H   0  0  0  0  0  0  0  0  0  0  0  0
    8.4446    6.7681    0.0000 H   0  0  0  0  0  0  0  0  0  0  0  0
   10.7152    8.5702    0.0000 H   0  0  0  0  0  0  0  0  0  0  0  0
    9.8648    8.7839    0.0000 H   0  0  0  0  0  0  0  0  0  0  0  0
    9.6511    7.9335    0.0000 H   0  0  0  0  0  0  0  0  0  0  0  0
   17.5385    2.0640    0.0000 H   0  0  0  0  0  0  0  0  0  0  0  0
   17.1400    2.7542    0.0000 H   0  0  0  0  0  0  0  0  0  0  0  0
   16.5989    6.9816    0.0000 H   0  0  0  0  0  0  0  0  0  0  0  0
   17.4649    3.8616    0.0000 H   0  0  0  0  0  0  0  0  0  0  0  0
   18.2615    4.6967    0.0000 H   0  0  0  0  0  0  0  0  0  0  0  0
   19.0585    4.6967    0.0000 H   0  0  0  0  0  0  0  0  0  0  0  0
   11.1949    5.4816    0.0000 H   0  0  0  0  0  0  0  0  0  0  0  0
   16.2740    8.0890    0.0000 H   0  0  0  0  0  0  0  0  0  0  0  0
   16.6725    8.7793    0.0000 H   0  0  0  0  0  0  0  0  0  0  0  0
   13.4638    7.7916    0.0000 H   0  0  0  0  0  0  0  0  0  0  0  0
   10.6537    4.2542    0.0000 H   0  0  0  0  0  0  0  0  0  0  0  0
   10.2552    3.5640    0.0000 H   0  0  0  0  0  0  0  0  0  0  0  0
   11.1212    7.2793    0.0000 H   0  0  0  0  0  0  0  0  0  0  0  0
   11.5197    6.5890    0.0000 H   0  0  0  0  0  0  0  0  0  0  0  0
    8.9524    0.9371    0.0000 H   0  0  0  0  0  0  0  0  0  0  0  0
   14.2000    1.7466    0.0000 H   0  0  0  0  0  0  0  0  0  0  0  0
    5.9279   -0.8620    0.0000 H   0  0  0  0  0  0  0  0  0  0  0  0
   16.3174    1.2793    0.0000 H   0  0  0  0  0  0  0  0  0  0  0  0
   16.7159    0.5890    0.0000 H   0  0  0  0  0  0  0  0  0  0  0  0
   15.1959    1.5516    0.0000 H   0  0  0  0  0  0  0  0  0  0  0  0
    6.6611   -3.0315    0.0000 H   0  0  0  0  0  0  0  0  0  0  0  0
    9.1070    4.0913    0.0000 H   0  0  0  0  0  0  0  0  0  0  0  0
    9.1641    4.8863    0.0000 H   0  0  0  0  0  0  0  0  0  0  0  0
   10.8378    0.0829    0.0000 H   0  0  0  0  0  0  0  0  0  0  0  0
    6.1412    6.9786    0.0000 H   0  0  0  0  0  0  0  0  0  0  0  0
    7.7675    1.8027    0.0000 H   0  0  0  0  0  0  0  0  0  0  0  0
    5.0415    1.9289    0.0000 H   0  0  0  0  0  0  0  0  0  0  0  0
    4.1669    1.9917    0.0000 H   0  0  0  0  0  0  0  0  0  0  0  0
    4.1041    1.1171    0.0000 H   0  0  0  0  0  0  0  0  0  0  0  0
    4.3143    0.0251    0.0000 H   0  0  0  0  0  0  0  0  0  0  0  0
    4.6972   -0.7637    0.0000 H   0  0  0  0  0  0  0  0  0  0  0  0
    5.4860   -0.3808    0.0000 H   0  0  0  0  0  0  0  0  0  0  0  0
    5.8724   -2.0147    0.0000 H   0  0  0  0  0  0  0  0  0  0  0  0
    5.2699   -2.5365    0.0000 H   0  0  0  0  0  0  0  0  0  0  0  0
    5.8512    5.5929    0.0000 H   0  0  0  0  0  0  0  0  0  0  0  0
   19.9246    6.1466    0.0000 H   0  0  0  0  0  0  0  0  0  0  0  0
   19.1275    6.1466    0.0000 H   0  0  0  0  0  0  0  0  0  0  0  0
   15.8499   10.2542    0.0000 H   0  0  0  0  0  0  0  0  0  0  0  0
   15.4513    9.5640    0.0000 H   0  0  0  0  0  0  0  0  0  0  0  0
    7.1386    6.9070    0.0000 H   0  0  0  0  0  0  0  0  0  0  0  0
   12.9963    3.1466    0.0000 H   0  0  0  0  0  0  0  0  0  0  0  0
   12.1993    3.1466    0.0000 H   0  0  0  0  0  0  0  0  0  0  0  0
   10.0685    2.2649    0.0000 H   0  0  0  0  0  0  0  0  0  0  0  0
    9.6856    3.0537    0.0000 H   0  0  0  0  0  0  0  0  0  0  0  0
   13.7333    1.0585    0.0000 H   0  0  0  0  0  0  0  0  0  0  0  0
   10.9949    1.5419    0.0000 H   0  0  0  0  0  0  0  0  0  0  0  0
   10.5776   -0.4432    0.0000 H   0  0  0  0  0  0  0  0  0  0  0  0
   10.7283   -1.2259    0.0000 H   0  0  0  0  0  0  0  0  0  0  0  0
   18.4046    0.5640    0.0000 H   0  0  0  0  0  0  0  0  0  0  0  0
   18.0060    1.2542    0.0000 H   0  0  0  0  0  0  0  0  0  0  0  0
    5.5644   -4.1995    0.0000 H   0  0  0  0  0  0  0  0  0  0  0  0
    6.1670   -3.6777    0.0000 H   0  0  0  0  0  0  0  0  0  0  0  0
    8.1276   -3.0844    0.0000 H   0  0  0  0  0  0  0  0  0  0  0  0
    4.2798    6.3273    0.0000 H   0  0  0  0  0  0  0  0  0  0  0  0
    3.6170    5.7533    0.0000 H   0  0  0  0  0  0  0  0  0  0  0  0
    4.1910    5.0905    0.0000 H   0  0  0  0  0  0  0  0  0  0  0  0
    5.1118    4.4669    0.0000 H   0  0  0  0  0  0  0  0  0  0  0  0
    5.9403    4.1799    0.0000 H   0  0  0  0  0  0  0  0  0  0  0  0
    6.2273    5.0084    0.0000 H   0  0  0  0  0  0  0  0  0  0  0  0
    4.5631   -3.1486    0.0000 H   0  0  0  0  0  0  0  0  0  0  0  0
    3.9606   -3.6704    0.0000 H   0  0  0  0  0  0  0  0  0  0  0  0
   20.3920    4.5516    0.0000 H   0  0  0  0  0  0  0  0  0  0  0  0
   17.4649    9.8616    0.0000 H   0  0  0  0  0  0  0  0  0  0  0  0
   10.3288    8.3616    0.0000 H   0  0  0  0  0  0  0  0  0  0  0  0
   13.1348    8.3616    0.0000 H   0  0  0  0  0  0  0  0  0  0  0  0
   17.2570   -0.6384    0.0000 H   0  0  0  0  0  0  0  0  0  0  0  0
   12.9589   -0.7259    0.0000 H   0  0  0  0  0  0  0  0  0  0  0  0
   10.8378   -2.5628    0.0000 H   0  0  0  0  0  0  0  0  0  0  0  0
   10.3288    9.9816    0.0000 H   0  0  0  0  0  0  0  0  0  0  0  0
   13.1348    9.9816    0.0000 H   0  0  0  0  0  0  0  0  0  0  0  0
    4.6514   -5.1821    0.0000 H   0  0  0  0  0  0  0  0  0  0  0  0
    8.3878   -5.2040    0.0000 H   0  0  0  0  0  0  0  0  0  0  0  0
    8.2371   -4.4213    0.0000 H   0  0  0  0  0  0  0  0  0  0  0  0
    4.0887    7.9942    0.0000 H   0  0  0  0  0  0  0  0  0  0  0  0
    4.0118    6.9231    0.0000 H   0  0  0  0  0  0  0  0  0  0  0  0
   11.7318   10.7916    0.0000 H   0  0  0  0  0  0  0  0  0  0  0  0
   14.0194   -1.9505    0.0000 H   0  0  0  0  0  0  0  0  0  0  0  0
   11.8984   -3.7874    0.0000 H   0  0  0  0  0  0  0  0  0  0  0  0
    6.9099   -5.9645    0.0000 H   0  0  0  0  0  0  0  0  0  0  0  0
   22.6610    5.4816    0.0000 H   0  0  0  0  0  0  0  0  0  0  0  0
   22.1241    4.5516    0.0000 H   0  0  0  0  0  0  0  0  0  0  0  0
   17.7940   12.2916    0.0000 H   0  0  0  0  0  0  0  0  0  0  0  0
   18.3309   11.3616    0.0000 H   0  0  0  0  0  0  0  0  0  0  0  0
   19.1969   -2.1384    0.0000 H   0  0  0  0  0  0  0  0  0  0  0  0
   18.1231   -2.1384    0.0000 H   0  0  0  0  0  0  0  0  0  0  0  0
   21.7950    6.9816    0.0000 H   0  0  0  0  0  0  0  0  0  0  0  0
   16.0619   12.2916    0.0000 H   0  0  0  0  0  0  0  0  0  0  0  0
   20.0630   -0.6384    0.0000 H   0  0  0  0  0  0  0  0  0  0  0  0
    2.3273   -5.9645    0.0000 H   0  0  0  0  0  0  0  0  0  0  0  0
    3.3420   -6.3160    0.0000 H   0  0  0  0  0  0  0  0  0  0  0  0
    7.3044   -7.2466    0.0000 H   0  0  0  0  0  0  0  0  0  0  0  0
    7.4550   -8.0293    0.0000 H   0  0  0  0  0  0  0  0  0  0  0  0
   13.5350   -4.3544    0.0000 H   0  0  0  0  0  0  0  0  0  0  0  0
    2.0000   -4.2637    0.0000 H   0  0  0  0  0  0  0  0  0  0  0  0
    9.1095   -8.1869    0.0000 H   0  0  0  0  0  0  0  0  0  0  0  0
    9.2339  -10.4736    0.0000 H   0  0  0  0  0  0  0  0  0  0  0  0
   10.3421   -9.4976    0.0000 H   0  0  0  0  0  0  0  0  0  0  0  0
    9.5889   -9.2367    0.0000 H   0  0  0  0  0  0  0  0  0  0  0  0
    9.9326  -10.8902    0.0000 H   0  0  0  0  0  0  0  0  0  0  0  0
   10.6858  -11.1511    0.0000 H   0  0  0  0  0  0  0  0  0  0  0  0
   11.9787  -10.0646    0.0000 H   0  0  0  0  0  0  0  0  0  0  0  0
   11.2255   -9.8037    0.0000 H   0  0  0  0  0  0  0  0  0  0  0  0
    8.9066  -11.4185    0.0000 H   0  0  0  0  0  0  0  0  0  0  0  0
    7.8919  -11.0670    0.0000 H   0  0  0  0  0  0  0  0  0  0  0  0
   11.8984  -11.7247    0.0000 H   0  0  0  0  0  0  0  0  0  0  0  0
   14.3468  -11.5886    0.0000 H   0  0  0  0  0  0  0  0  0  0  0  0
   13.5350  -12.2916    0.0000 H   0  0  0  0  0  0  0  0  0  0  0  0
   14.0194   -9.8878    0.0000 H   0  0  0  0  0  0  0  0  0  0  0  0
  1  3  1  0  0  0  0
  1 78  1  0  0  0  0
  2  4  1  0  0  0  0
  2 86  1  0  0  0  0
  3 98  1  0  0  0  0
  4 99  1  0  0  0  0
  5 58  2  0  0  0  0
  6 66  2  0  0  0  0
  7 73  2  0  0  0  0
  8 74  2  0  0  0  0
  9 76  2  0  0  0  0
 10 79  2  0  0  0  0
 11 83  2  0  0  0  0
 12 87  2  0  0  0  0
 13 90  2  0  0  0  0
 14 93  2  0  0  0  0
 15100  2  0  0  0  0
 16102  2  0  0  0  0
 17108  2  0  0  0  0
 18113  2  0  0  0  0
 19125  1  0  0  0  0
 19253  1  0  0  0  0
 20127  2  0  0  0  0
 21130  2  0  0  0  0
 22 55  1  0  0  0  0
 22 66  1  0  0  0  0
 22139  1  0  0  0  0
 23 58  1  0  0  0  0
 23 69  1  0  0  0  0
 23157  1  0  0  0  0
 24 60  1  0  0  0  0
 24 73  1  0  0  0  0
 24163  1  0  0  0  0
 25 59  1  0  0  0  0
 25 76  1  0  0  0  0
 25164  1  0  0  0  0
 26 61  1  0  0  0  0
 26 79  1  0  0  0  0
 26167  1  0  0  0  0
 27 68  1  0  0  0  0
 27 74  1  0  0  0  0
 27170  1  0  0  0  0
 62 28  1  1  0  0  0
 28 93  1  0  0  0  0
 28177  1  0  0  0  0
 29 64  1  0  0  0  0
 29 90  1  0  0  0  0
 29180  1  0  0  0  0
 81 30  1  1  0  0  0
 30 83  1  0  0  0  0
 30186  1  0  0  0  0
 31 87  1  0  0  0  0
 89 31  1  1  0  0  0
 31200  1  0  0  0  0
 32 82  1  0  0  0  0
 32102  1  0  0  0  0
 32205  1  0  0  0  0
 33 88  1  0  0  0  0
 33100  1  0  0  0  0
 33206  1  0  0  0  0
 85 34  1  1  0  0  0
 34113  1  0  0  0  0
 34213  1  0  0  0  0
 35 96  1  0  0  0  0
 35119  1  0  0  0  0
 35222  1  0  0  0  0
 36 97  1  0  0  0  0
 36120  1  0  0  0  0
 36223  1  0  0  0  0
 37103  1  0  0  0  0
 37122  1  0  0  0  0
 37226  1  0  0  0  0
 38109  1  0  0  0  0
 38126  1  0  0  0  0
 38231  1  0  0  0  0
 39108  1  0  0  0  0
 39234  1  0  0  0  0
 39235  1  0  0  0  0
 40118  1  0  0  0  0
 40127  1  0  0  0  0
 40239  1  0  0  0  0
 41119  1  0  0  0  0
 41240  1  0  0  0  0
 41241  1  0  0  0  0
 42120  1  0  0  0  0
 42242  1  0  0  0  0
 42243  1  0  0  0  0
 43122  1  0  0  0  0
 43244  1  0  0  0  0
 43245  1  0  0  0  0
 44119  2  0  0  0  0
 44246  1  0  0  0  0
 45120  2  0  0  0  0
 45247  1  0  0  0  0
 46122  2  0  0  0  0
 46248  1  0  0  0  0
 47126  1  0  0  0  0
 47249  1  0  0  0  0
 47250  1  0  0  0  0
 48126  2  0  0  0  0
 48254  1  0  0  0  0
 49128  1  0  0  0  0
 49130  1  0  0  0  0
 49255  1  0  0  0  0
129 50  1  6  0  0  0
 50263  1  0  0  0  0
 50264  1  0  0  0  0
 51133  1  0  0  0  0
 51134  1  0  0  0  0
 51265  1  0  0  0  0
 52134  1  0  0  0  0
 52266  1  0  0  0  0
 52267  1  0  0  0  0
 53134  2  0  0  0  0
 53268  1  0  0  0  0
 54 55  1  0  0  0  0
 54 56  1  0  0  0  0
 54 57  1  6  0  0  0
 54135  1  0  0  0  0
 55 58  1  0  0  0  0
 55136  1  1  0  0  0
 56 71  1  0  0  0  0
 56137  1  0  0  0  0
 56138  1  0  0  0  0
 57140  1  0  0  0  0
 57141  1  0  0  0  0
 57142  1  0  0  0  0
 59 65  1  6  0  0  0
 59 73  1  0  0  0  0
 59143  1  0  0  0  0
 60 67  1  6  0  0  0
 60 74  1  0  0  0  0
 60144  1  0  0  0  0
 61 66  1  0  0  0  0
 61 78  1  0  0  0  0
 61145  1  6  0  0  0
 62 63  1  0  0  0  0
 62 83  1  0  0  0  0
 62146  1  0  0  0  0
 63 70  1  0  0  0  0
 63147  1  0  0  0  0
 63148  1  0  0  0  0
 64 72  1  6  0  0  0
 64 76  1  0  0  0  0
 64149  1  0  0  0  0
 65 75  1  0  0  0  0
 65150  1  0  0  0  0
 65151  1  0  0  0  0
 67 77  1  0  0  0  0
 67152  1  0  0  0  0
 67153  1  0  0  0  0
 68 79  1  0  0  0  0
 68 80  1  6  0  0  0
 68154  1  0  0  0  0
 69 86  1  0  0  0  0
 69 87  1  1  0  0  0
 69155  1  0  0  0  0
 70 91  1  0  0  0  0
 70 92  1  0  0  0  0
 70156  1  0  0  0  0
 71158  1  0  0  0  0
 71159  1  0  0  0  0
 71160  1  0  0  0  0
 72 84  1  0  0  0  0
 72161  1  0  0  0  0
 72162  1  0  0  0  0
 75 96  1  0  0  0  0
 75165  1  0  0  0  0
 75166  1  0  0  0  0
 77 97  1  0  0  0  0
 77168  1  0  0  0  0
 77169  1  0  0  0  0
 78171  1  0  0  0  0
 78172  1  0  0  0  0
 80104  1  0  0  0  0
 80173  1  0  0  0  0
 80174  1  0  0  0  0
 81 99  1  0  0  0  0
 81100  1  0  0  0  0
 81175  1  0  0  0  0
 82 90  1  0  0  0  0
 82 98  1  0  0  0  0
 82176  1  6  0  0  0
 84103  1  0  0  0  0
 84178  1  0  0  0  0
 84179  1  0  0  0  0
 85 93  1  0  0  0  0
 85 94  1  0  0  0  0
 85181  1  0  0  0  0
 86182  1  0  0  0  0
 86183  1  0  0  0  0
 88101  1  6  0  0  0
 88102  1  0  0  0  0
 88184  1  0  0  0  0
 89 95  1  0  0  0  0
 89108  1  0  0  0  0
 89185  1  0  0  0  0
 91187  1  0  0  0  0
 91188  1  0  0  0  0
 91189  1  0  0  0  0
 92190  1  0  0  0  0
 92191  1  0  0  0  0
 92192  1  0  0  0  0
 94105  1  0  0  0  0
 94193  1  0  0  0  0
 94194  1  0  0  0  0
 95106  1  0  0  0  0
 95107  1  0  0  0  0
 95195  1  0  0  0  0
 96196  1  0  0  0  0
 96197  1  0  0  0  0
 97198  1  0  0  0  0
 97199  1  0  0  0  0
 98201  1  0  0  0  0
 98202  1  0  0  0  0
 99203  1  0  0  0  0
 99204  1  0  0  0  0
101110  1  0  0  0  0
101207  1  0  0  0  0
101208  1  0  0  0  0
103209  1  0  0  0  0
103210  1  0  0  0  0
104111  2  0  0  0  0
104112  1  0  0  0  0
105109  1  0  0  0  0
105211  1  0  0  0  0
105212  1  0  0  0  0
106214  1  0  0  0  0
106215  1  0  0  0  0
106216  1  0  0  0  0
107217  1  0  0  0  0
107218  1  0  0  0  0
107219  1  0  0  0  0
109220  1  0  0  0  0
109221  1  0  0  0  0
110114  2  0  0  0  0
110115  1  0  0  0  0
111116  1  0  0  0  0
111224  1  0  0  0  0
112117  2  0  0  0  0
112225  1  0  0  0  0
113118  1  0  0  0  0
114123  1  0  0  0  0
114227  1  0  0  0  0
115124  2  0  0  0  0
115228  1  0  0  0  0
116121  2  0  0  0  0
116229  1  0  0  0  0
117121  1  0  0  0  0
117230  1  0  0  0  0
118232  1  0  0  0  0
118233  1  0  0  0  0
121236  1  0  0  0  0
123125  2  0  0  0  0
123237  1  0  0  0  0
124125  1  0  0  0  0
124238  1  0  0  0  0
127128  1  0  0  0  0
128251  1  0  0  0  0
128252  1  0  0  0  0
129130  1  0  0  0  0
129131  1  0  0  0  0
129256  1  0  0  0  0
131132  1  0  0  0  0
131257  1  0  0  0  0
131258  1  0  0  0  0
132133  1  0  0  0  0
132259  1  0  0  0  0
132260  1  0  0  0  0
133261  1  0  0  0  0
133262  1  0  0  0  0
M  END
> <PUBCHEM_COMPOUND_CID>
16130827

> <PUBCHEM_COMPOUND_CANONICALIZED>
1

> <PUBCHEM_CACTVS_COMPLEXITY>
3960

> <PUBCHEM_CACTVS_HBOND_ACCEPTOR>
27

> <PUBCHEM_CACTVS_HBOND_DONOR>
33

> <PUBCHEM_CACTVS_ROTATABLE_BOND>
47

> <PUBCHEM_CACTVS_SUBSKEYS>
AAADcfB//gBwAAAAAAAAAAAAAAAAAAAAAAAwYAAAAAAAAAABQAAAHgQQCAAADSzF2ASzBoLAAgCoAiFSMAACAACgIAAJiIGOCIiIZjKCmTOUcAAk1hOImAeYyaCOIAAAAAAAAABAAAAAAAAAAAAAAAAAAA==

> <PUBCHEM_IUPAC_OPENEYE_NAME>
(1R,4S,7R,12R,15S,18R,21S,24S,27S,30S)-7-[[(2S)-2-[[(2S)-2-[[2-[[2-[[(2S)-2-amino-5-guanidino-pentanoyl]amino]acetyl]amino]acetyl]amino]-5-guanidino-pentanoyl]amino]-4-methyl-pentanoyl]amino]-21-benzyl-N-[(1S)-1-carbamoyl-2-methyl-propyl]-24,27,30-tris(3-guanidinopropyl)-4-[(4-hydroxyphenyl)methyl]-15-[(1S)-1-methylpropyl]-3,6,14,17,20,23,26,29,32-nonaoxo-9,10,34,35-tetrathia-2,5,13,16,19,22,25,28,31-nonazabicyclo[16.14.4]hexatriacontane-12-carboxamide

> <PUBCHEM_IUPAC_CAS_NAME>
(1R,4S,7R,12R,15S,18R,21S,24S,27S,30S)-7-[[(2S)-2-[[(2S)-2-[[2-[[2-[[(2S)-2-amino-5-carbamimidamido-1-oxopentyl]amino]-1-oxoethyl]amino]-1-oxoethyl]amino]-5-carbamimidamido-1-oxopentyl]amino]-4-methyl-1-oxopentyl]amino]-N-[(2S)-1-amino-3-methyl-1-oxobutan-2-yl]-15-[(2S)-butan-2-yl]-24,27,30-tris(3-carbamimidamidopropyl)-4-[(4-hydroxyphenyl)methyl]-3,6,14,17,20,23,26,29,32-nonaoxo-21-(phenylmethyl)-9,10,34,35-tetrathia-2,5,13,16,19,22,25,28,31-nonazabicyclo[16.14.4]hexatriacontane-12-carboxamide

> <PUBCHEM_IUPAC_NAME_MARKUP>
(1<I>R</I>,4<I>S</I>,7<I>R</I>,12<I>R</I>,15<I>S</I>,18<I>R</I>,21<I>S</I>,24<I>S</I>,27<I>S</I>,30<I>S</I>)-7-[[(2<I>S</I>)-2-[[(2<I>S</I>)-2-[[2-[[2-[[(2<I>S</I>)-2-amino-5-carbamimidamidopentanoyl]amino]acetyl]amino]acetyl]amino]-5-carbamimidamidopentanoyl]amino]-4-methylpentanoyl]amino]-<I>N</I>-[(2<I>S</I>)-1-amino-3-methyl-1-oxobutan-2-yl]-21-benzyl-15-[(2<I>S</I>)-butan-2-yl]-24,27,30-tris(3-carbamimidamidopropyl)-4-[(4-hydroxyphenyl)methyl]-3,6,14,17,20,23,26,29,32-nonaoxo-9,10,34,35-tetrathia-2,5,13,16,19,22,25,28,31-nonazabicyclo[16.14.4]hexatriacontane-12-carboxamide

> <PUBCHEM_IUPAC_NAME>
(1R,4S,7R,12R,15S,18R,21S,24S,27S,30S)-7-[[(2S)-2-[[(2S)-2-[[2-[[2-[[(2S)-2-amino-5-carbamimidamidopentanoyl]amino]acetyl]amino]acetyl]amino]-5-carbamimidamidopentanoyl]amino]-4-methylpentanoyl]amino]-N-[(2S)-1-amino-3-methyl-1-oxobutan-2-yl]-21-benzyl-15-[(2S)-butan-2-yl]-24,27,30-tris(3-carbamimidamidopropyl)-4-[(4-hydroxyphenyl)methyl]-3,6,14,17,20,23,26,29,32-nonaoxo-9,10,34,35-tetrathia-2,5,13,16,19,22,25,28,31-nonazabicyclo[16.14.4]hexatriacontane-12-carboxamide

> <PUBCHEM_IUPAC_SYSTEMATIC_NAME>
(1R,4S,7R,12R,15S,18R,21S,24S,27S,30S)-7-[[(2S)-2-[[(2S)-2-[2-[2-[[(2S)-2-azanyl-5-carbamimidamido-pentanoyl]amino]ethanoylamino]ethanoylamino]-5-carbamimidamido-pentanoyl]amino]-4-methyl-pentanoyl]amino]-N-[(2S)-1-azanyl-3-methyl-1-oxidanylidene-butan-2-yl]-15-[(2S)-butan-2-yl]-24,27,30-tris(3-carbamimidamidopropyl)-4-[(4-hydroxyphenyl)methyl]-3,6,14,17,20,23,26,29,32-nonakis(oxidanylidene)-21-(phenylmethyl)-9,10,34,35-tetrathia-2,5,13,16,19,22,25,28,31-nonazabicyclo[16.14.4]hexatriacontane-12-carboxamide

> <PUBCHEM_IUPAC_TRADITIONAL_NAME>
(1R,4S,7R,12R,15S,18R,21S,24S,27S,30S)-7-[[(2S)-2-[[(2S)-2-[[2-[[2-[[(2S)-2-amino-5-guanidino-pentanoyl]amino]acetyl]amino]acetyl]amino]-5-guanidino-pentanoyl]amino]-4-methyl-pentanoyl]amino]-21-benzyl-N-[(1S)-1-carbamoyl-2-methyl-propyl]-24,27,30-tris(3-guanidinopropyl)-4-(4-hydroxybenzyl)-3,6,14,17,20,23,26,29,32-nonaketo-15-[(1S)-1-methylpropyl]-9,10,34,35-tetrathia-2,5,13,16,19,22,25,28,31-nonazabicyclo[16.14.4]hexatriacontane-12-carboxamide

> <PUBCHEM_IUPAC_INCHI>
InChI=1S/C81H134N32O17S4/c1-7-43(6)62-76(130)111-58(74(128)112-61(42(4)5)63(83)117)40-134-132-38-56(108-69(123)52(32-41(2)3)105-65(119)48(19-12-28-95-78(86)87)101-60(116)36-99-59(115)35-100-64(118)47(82)18-11-27-94-77(84)85)73(127)107-54(34-45-23-25-46(114)26-24-45)71(125)109-55-37-131-133-39-57(75(129)113-62)110-70(124)53(33-44-16-9-8-10-17-44)106-68(122)51(22-15-31-98-81(92)93)103-66(120)49(20-13-29-96-79(88)89)102-67(121)50(104-72(55)126)21-14-30-97-80(90)91/h8-10,16-17,23-26,41-43,47-58,61-62,114H,7,11-15,18-22,27-40,82H2,1-6H3,(H2,83,117)(H,99,115)(H,100,118)(H,101,116)(H,102,121)(H,103,120)(H,104,126)(H,105,119)(H,106,122)(H,107,127)(H,108,123)(H,109,125)(H,110,124)(H,111,130)(H,112,128)(H,113,129)(H4,84,85,94)(H4,86,87,95)(H4,88,89,96)(H4,90,91,97)(H4,92,93,98)/t43-,47-,48-,49-,50-,51-,52-,53-,54-,55-,56-,57-,58-,61-,62-/m0/s1

> <PUBCHEM_IUPAC_INCHIKEY>
WVMOUHNEDGUTQU-GPOLKXGASA-N

> <PUBCHEM_XLOGP3_AA>
-4.2

> <PUBCHEM_EXACT_MASS>
1954.9487556

> <PUBCHEM_MOLECULAR_FORMULA>
C81H134N32O17S4

> <PUBCHEM_MOLECULAR_WEIGHT>
1956.4

> <PUBCHEM_OPENEYE_CAN_SMILES>
CCC(C)C1C(=O)NC(CSSCC(C(=O)NC(C(=O)NC2CSSCC(C(=O)N1)NC(=O)C(NC(=O)C(NC(=O)C(NC(=O)C(NC2=O)CCCNC(=N)N)CCCNC(=N)N)CCCNC(=N)N)CC3=CC=CC=C3)CC4=CC=C(C=C4)O)NC(=O)C(CC(C)C)NC(=O)C(CCCNC(=N)N)NC(=O)CNC(=O)CNC(=O)C(CCCNC(=N)N)N)C(=O)NC(C(C)C)C(=O)N

> <PUBCHEM_OPENEYE_ISO_SMILES>
CC[C@H](C)[C@H]1C(=O)N[C@@H](CSSC[C@@H](C(=O)N[C@H](C(=O)N[C@H]2CSSC[C@@H](C(=O)N1)NC(=O)[C@@H](NC(=O)[C@@H](NC(=O)[C@@H](NC(=O)[C@@H](NC2=O)CCCNC(=N)N)CCCNC(=N)N)CCCNC(=N)N)CC3=CC=CC=C3)CC4=CC=C(C=C4)O)NC(=O)[C@H](CC(C)C)NC(=O)[C@H](CCCNC(=N)N)NC(=O)CNC(=O)CNC(=O)[C@H](CCCNC(=N)N)N)C(=O)N[C@@H](C(C)C)C(=O)N

> <PUBCHEM_CACTVS_TPSA>
937

> <PUBCHEM_MONOISOTOPIC_WEIGHT>
1954.9487556

> <PUBCHEM_TOTAL_CHARGE>
0

> <PUBCHEM_HEAVY_ATOM_COUNT>
134

> <PUBCHEM_ATOM_DEF_STEREO_COUNT>
15

> <PUBCHEM_ATOM_UDEF_STEREO_COUNT>
0

> <PUBCHEM_BOND_DEF_STEREO_COUNT>
0

> <PUBCHEM_BOND_UDEF_STEREO_COUNT>
0

> <PUBCHEM_ISOTOPIC_ATOM_COUNT>
0

> <PUBCHEM_COMPONENT_COUNT>
1

> <PUBCHEM_CACTVS_TAUTO_COUNT>
-1

> <PUBCHEM_COORDINATE_TYPE>
1
5
255

> <PUBCHEM_BONDANNOTATIONS>
104  111  8
104  112  8
110  114  8
110  115  8
111  116  8
112  117  8
114  123  8
115  124  8
116  121  8
117  121  8
123  125  8
124  125  8
62  28  5
81  30  5
89  31  5
85  34  5
129  50  6
54  57  6
55  136  5
59  65  6
60  67  6
61  145  6
64  72  6
68  80  6
69  87  5
82  176  6
88  101  6

$$$$
