SV_J7_0003
  -OEChem-07172407042D

 25 27  0     0  0  0  0  0  0999 V2000
    2.0000   -2.0229    0.0000 Cl  0  0  0  0  0  0  0  0  0  0  0  0
    7.3667    0.9957    0.0000 S   0  0  0  0  0  0  0  0  0  0  0  0
    5.5301    1.0012    0.0000 O   0  0  0  0  0  0  0  0  0  0  0  0
    5.5301   -1.9988    0.0000 N   0  0  0  0  0  0  0  0  0  0  0  0
    8.1757   -0.4055    0.0000 N   0  0  0  0  0  0  0  0  0  0  0  0
    8.8448    0.3376    0.0000 N   0  0  0  0  0  0  0  0  0  0  0  0
    8.7516    2.1172    0.0000 N   0  0  0  0  0  0  0  0  0  0  0  0
    4.6641   -0.4988    0.0000 C   0  0  0  0  0  0  0  0  0  0  0  0
    4.6641   -1.4988    0.0000 C   0  0  0  0  0  0  0  0  0  0  0  0
    6.3961   -0.4988    0.0000 C   0  0  0  0  0  0  0  0  0  0  0  0
    5.5301    0.0012    0.0000 C   0  0  0  0  0  0  0  0  0  0  0  0
    6.3961   -1.4988    0.0000 C   0  0  0  0  0  0  0  0  0  0  0  0
    3.7702    0.0359    0.0000 C   0  0  0  0  0  0  0  0  0  0  0  0
    3.7702   -2.0335    0.0000 C   0  0  0  0  0  0  0  0  0  0  0  0
    7.2622    0.0012    0.0000 C   0  0  0  0  0  0  0  0  0  0  0  0
    2.8641   -0.4780    0.0000 C   0  0  0  0  0  0  0  0  0  0  0  0
    2.8641   -1.5196    0.0000 C   0  0  0  0  0  0  0  0  0  0  0  0
    8.3448    1.2037    0.0000 C   0  0  0  0  0  0  0  0  0  0  0  0
    5.5301   -2.6188    0.0000 H   0  0  0  0  0  0  0  0  0  0  0  0
    6.9331   -1.8088    0.0000 H   0  0  0  0  0  0  0  0  0  0  0  0
    3.7773    0.6558    0.0000 H   0  0  0  0  0  0  0  0  0  0  0  0
    3.7773   -2.6534    0.0000 H   0  0  0  0  0  0  0  0  0  0  0  0
    2.3284   -0.1659    0.0000 H   0  0  0  0  0  0  0  0  0  0  0  0
    9.3682    2.1820    0.0000 H   0  0  0  0  0  0  0  0  0  0  0  0
    8.3872    2.6188    0.0000 H   0  0  0  0  0  0  0  0  0  0  0  0
  1 17  1  0  0  0  0
  2 15  1  0  0  0  0
  2 18  1  0  0  0  0
  3 11  2  0  0  0  0
  4  9  1  0  0  0  0
  4 12  1  0  0  0  0
  4 19  1  0  0  0  0
  5  6  1  0  0  0  0
  5 15  2  0  0  0  0
  6 18  2  0  0  0  0
  7 18  1  0  0  0  0
  7 24  1  0  0  0  0
  7 25  1  0  0  0  0
  8  9  2  0  0  0  0
  8 11  1  0  0  0  0
  8 13  1  0  0  0  0
  9 14  1  0  0  0  0
 10 11  1  0  0  0  0
 10 12  2  0  0  0  0
 10 15  1  0  0  0  0
 12 20  1  0  0  0  0
 13 16  2  0  0  0  0
 13 21  1  0  0  0  0
 14 17  2  0  0  0  0
 14 22  1  0  0  0  0
 16 17  1  0  0  0  0
 16 23  1  0  0  0  0
M  END
> <PUBCHEM_COMPOUND_CID>
166451722

> <PUBCHEM_COMPOUND_CANONICALIZED>
1

> <PUBCHEM_CACTVS_COMPLEXITY>
391

> <PUBCHEM_CACTVS_HBOND_ACCEPTOR>
6

> <PUBCHEM_CACTVS_HBOND_DONOR>
2

> <PUBCHEM_CACTVS_ROTATABLE_BOND>
1

> <PUBCHEM_CACTVS_SUBSKEYS>
AAADcYBzoABEAAAAAAAAAAAAAAAAAWAAAAAwQAAAAAAAAACBwAAAHgYYAAAADA7B2iQx0ILAAAiuAqR2YACSAIJlBxEciIEoZtgIIDrhl5GEIYhwmABIyccYiICOBAAAAAICAAAIAAAABAQAAAAAAAAAAA==

> <PUBCHEM_IUPAC_OPENEYE_NAME>
3-(5-amino-1,3,4-thiadiazol-2-yl)-7-chloro-1H-quinolin-4-one

> <PUBCHEM_IUPAC_CAS_NAME>
3-(5-amino-1,3,4-thiadiazol-2-yl)-7-chloro-1H-quinolin-4-one

> <PUBCHEM_IUPAC_NAME_MARKUP>
3-(5-amino-1,3,4-thiadiazol-2-yl)-7-chloro-1<I>H</I>-quinolin-4-one

> <PUBCHEM_IUPAC_NAME>
3-(5-amino-1,3,4-thiadiazol-2-yl)-7-chloro-1H-quinolin-4-one

> <PUBCHEM_IUPAC_SYSTEMATIC_NAME>
3-(5-azanyl-1,3,4-thiadiazol-2-yl)-7-chloranyl-1H-quinolin-4-one

> <PUBCHEM_IUPAC_TRADITIONAL_NAME>
3-(5-amino-1,3,4-thiadiazol-2-yl)-7-chloro-4-quinolone

> <PUBCHEM_IUPAC_INCHI>
InChI=1S/C11H7ClN4OS/c12-5-1-2-6-8(3-5)14-4-7(9(6)17)10-15-16-11(13)18-10/h1-4H,(H2,13,16)(H,14,17)

> <PUBCHEM_IUPAC_INCHIKEY>
BUHUBOHWDXCLAW-UHFFFAOYSA-N

> <PUBCHEM_XLOGP3_AA>
2

> <PUBCHEM_EXACT_MASS>
278.0029097

> <PUBCHEM_MOLECULAR_FORMULA>
C11H7ClN4OS

> <PUBCHEM_MOLECULAR_WEIGHT>
278.72

> <PUBCHEM_OPENEYE_CAN_SMILES>
C1=CC2=C(C=C1Cl)NC=C(C2=O)C3=NN=C(S3)N

> <PUBCHEM_OPENEYE_ISO_SMILES>
C1=CC2=C(C=C1Cl)NC=C(C2=O)C3=NN=C(S3)N

> <PUBCHEM_CACTVS_TPSA>
109

> <PUBCHEM_MONOISOTOPIC_WEIGHT>
278.0029097

> <PUBCHEM_TOTAL_CHARGE>
0

> <PUBCHEM_HEAVY_ATOM_COUNT>
18

> <PUBCHEM_ATOM_DEF_STEREO_COUNT>
0

> <PUBCHEM_ATOM_UDEF_STEREO_COUNT>
0

> <PUBCHEM_BOND_DEF_STEREO_COUNT>
0

> <PUBCHEM_BOND_UDEF_STEREO_COUNT>
0

> <PUBCHEM_ISOTOPIC_ATOM_COUNT>
0

> <PUBCHEM_COMPONENT_COUNT>
1

> <PUBCHEM_CACTVS_TAUTO_COUNT>
-1

> <PUBCHEM_COORDINATE_TYPE>
1
5
255

> <PUBCHEM_BONDANNOTATIONS>
10  11  8
10  12  8
13  16  8
14  17  8
16  17  8
2  15  8
2  18  8
4  12  8
4  9  8
5  15  8
5  6  8
6  18  8
8  11  8
8  13  8
8  9  8
9  14  8

$$$$
