Daniquidone
  -OEChem-01262104433D

 30 33  0     0  0  0  0  0  0999 V2000
   -1.8745    2.8250   -0.0004 O   0  0  0  0  0  0  0  0  0  0  0  0
   -0.4386    0.9627    0.0002 N   0  0  0  0  0  0  0  0  0  0  0  0
    0.3354   -1.2892   -0.0003 N   0  0  0  0  0  0  0  0  0  0  0  0
    5.6864    0.4581    0.0002 N   0  0  0  0  0  0  0  0  0  0  0  0
    0.8734    1.5834   -0.0005 C   0  0  0  0  0  0  0  0  0  0  0  0
   -0.6014   -0.4014    0.0002 C   0  0  0  0  0  0  0  0  0  0  0  0
   -2.0315   -0.6516    0.0001 C   0  0  0  0  0  0  0  0  0  0  0  0
    1.9758    0.5606    0.0000 C   0  0  0  0  0  0  0  0  0  0  0  0
   -2.6681    0.5843    0.0003 C   0  0  0  0  0  0  0  0  0  0  0  0
   -1.6405    1.6313    0.0004 C   0  0  0  0  0  0  0  0  0  0  0  0
    1.6663   -0.8155   -0.0003 C   0  0  0  0  0  0  0  0  0  0  0  0
    3.3132    0.9761    0.0002 C   0  0  0  0  0  0  0  0  0  0  0  0
   -2.7354   -1.8373    0.0001 C   0  0  0  0  0  0  0  0  0  0  0  0
   -4.0430    0.6952   -0.0001 C   0  0  0  0  0  0  0  0  0  0  0  0
    2.7097   -1.7485   -0.0003 C   0  0  0  0  0  0  0  0  0  0  0  0
    4.3410    0.0343    0.0003 C   0  0  0  0  0  0  0  0  0  0  0  0
    4.0396   -1.3258   -0.0001 C   0  0  0  0  0  0  0  0  0  0  0  0
   -4.1303   -1.7475    0.0001 C   0  0  0  0  0  0  0  0  0  0  0  0
   -4.7775   -0.4943   -0.0001 C   0  0  0  0  0  0  0  0  0  0  0  0
    0.9377    2.2240    0.8863 H   0  0  0  0  0  0  0  0  0  0  0  0
    0.9374    2.2225   -0.8885 H   0  0  0  0  0  0  0  0  0  0  0  0
    3.5461    2.0388    0.0003 H   0  0  0  0  0  0  0  0  0  0  0  0
   -2.2394   -2.8006    0.0000 H   0  0  0  0  0  0  0  0  0  0  0  0
   -4.5412    1.6574   -0.0002 H   0  0  0  0  0  0  0  0  0  0  0  0
    2.4912   -2.8137   -0.0005 H   0  0  0  0  0  0  0  0  0  0  0  0
    4.8327   -2.0695   -0.0003 H   0  0  0  0  0  0  0  0  0  0  0  0
   -4.7275   -2.6557    0.0002 H   0  0  0  0  0  0  0  0  0  0  0  0
   -5.8638   -0.4554   -0.0002 H   0  0  0  0  0  0  0  0  0  0  0  0
    6.4322   -0.2248    0.0012 H   0  0  0  0  0  0  0  0  0  0  0  0
    5.9062    1.4453    0.0014 H   0  0  0  0  0  0  0  0  0  0  0  0
  1 10  2  0  0  0  0
  2  5  1  0  0  0  0
  2  6  1  0  0  0  0
  2 10  1  0  0  0  0
  3  6  2  0  0  0  0
  3 11  1  0  0  0  0
  4 16  1  0  0  0  0
  4 29  1  0  0  0  0
  4 30  1  0  0  0  0
  5  8  1  0  0  0  0
  5 20  1  0  0  0  0
  5 21  1  0  0  0  0
  6  7  1  0  0  0  0
  7  9  1  0  0  0  0
  7 13  2  0  0  0  0
  8 11  2  0  0  0  0
  8 12  1  0  0  0  0
  9 10  1  0  0  0  0
  9 14  2  0  0  0  0
 11 15  1  0  0  0  0
 12 16  2  0  0  0  0
 12 22  1  0  0  0  0
 13 18  1  0  0  0  0
 13 23  1  0  0  0  0
 14 19  1  0  0  0  0
 14 24  1  0  0  0  0
 15 17  2  0  0  0  0
 15 25  1  0  0  0  0
 16 17  1  0  0  0  0
 17 26  1  0  0  0  0
 18 19  2  0  0  0  0
 18 27  1  0  0  0  0
 19 28  1  0  0  0  0
M  END
> <PUBCHEM_COMPOUND_CID>
71750

> <PUBCHEM_CONFORMER_RMSD>
0.6

> <PUBCHEM_CONFORMER_DIVERSEORDER>
1

> <PUBCHEM_MMFF94_PARTIAL_CHARGES>
28
1 -0.57
10 0.54
11 0.18
12 -0.15
13 -0.15
14 -0.15
15 -0.15
16 0.1
17 -0.15
18 -0.15
19 -0.15
2 -0.42
22 0.15
23 0.15
24 0.15
25 0.15
26 0.15
27 0.15
28 0.15
29 0.4
3 -0.63
30 0.4
4 -0.9
5 0.44
6 0.42
7 0.09
8 -0.14
9 0.09

> <PUBCHEM_EFFECTIVE_ROTOR_COUNT>
0.2

> <PUBCHEM_PHARMACOPHORE_FEATURES>
7
1 1 acceptor
1 4 cation
1 4 donor
5 2 6 7 9 10 rings
6 2 3 5 6 8 11 rings
6 7 9 13 14 18 19 rings
6 8 11 12 15 16 17 rings

> <PUBCHEM_HEAVY_ATOM_COUNT>
19

> <PUBCHEM_ATOM_DEF_STEREO_COUNT>
0

> <PUBCHEM_ATOM_UDEF_STEREO_COUNT>
0

> <PUBCHEM_BOND_DEF_STEREO_COUNT>
0

> <PUBCHEM_BOND_UDEF_STEREO_COUNT>
0

> <PUBCHEM_ISOTOPIC_ATOM_COUNT>
0

> <PUBCHEM_COMPONENT_COUNT>
1

> <PUBCHEM_CACTVS_TAUTO_COUNT>
1

> <PUBCHEM_CONFORMER_ID>
0001184600000001

> <PUBCHEM_MMFF94_ENERGY>
66.5027

> <PUBCHEM_FEATURE_SELFOVERLAP>
35.749

> <PUBCHEM_SHAPE_FINGERPRINT>
10616163 171 18412265034067119487
10967382 1 18338236088821152903
11806522 49 18407760348039350142
12107183 9 17615402563618601106
13140716 1 18194967576095861123
13288520 33 18412265051330955951
138480 1 15024149219114808321
13862211 1 18410851096468191567
14787075 74 18262237836661831058
15196674 1 18410575058909138374
15442244 35 18193274083756056986
15536298 74 18341894116619692114
16945 1 18338516335764303489
17492 89 18337953376910685786
17804303 29 18342177777909057137
1813 80 17458348541375810909
18522853 276 18411418410260989680
19141452 34 18272936055168213975
200 152 18202280316553303579
20261772 1 17988922313997422574
20510252 161 18271526381928427457
20645477 70 18342176618579539614
21267235 1 18338243751386038139
221490 88 18191029112766234187
2297311 6 18271820020384187708
23402539 116 18408879659234453670
23463225 33 18410294726457012605
23557571 272 18201728314582400188
23559900 14 18412256268313155496
26918003 58 17968095356312221931
2871803 45 18335416859345387702
335352 9 18338797806504154005
34934 24 18336822009810337083
350125 39 18410576197313446292
3545911 37 18410293609691656022
4214541 1 18410573942270583808
474 4 17313677065495171284
4921388 177 16081379600059681659
5104073 3 18411699850756624106
67856867 119 18188772880963394788
7364860 26 18268429216666224664
77779 3 18411420600641680006
8809292 202 18261396675996826819
9709674 26 18411143506542602598

> <PUBCHEM_SHAPE_MULTIPOLES>
370.2
9.84
2.14
0.6
4.14
0.47
0
-1.93
0
-0.93
0
-0.02
-0.02
0

> <PUBCHEM_SHAPE_SELFOVERLAP>
846.694

> <PUBCHEM_SHAPE_VOLUME>
192.7

> <PUBCHEM_COORDINATE_TYPE>
2
5
10

$$$$
