Isocryptolepine
  -OEChem-01222104313D

 30 33  0     0  0  0  0  0  0999 V2000
   -1.5484    1.7806   -0.0001 N   0  0  0  0  0  0  0  0  0  0  0  0
    0.8745   -1.5585    0.0005 N   0  0  0  0  0  0  0  0  0  0  0  0
    0.6238    0.7496   -0.0009 C   0  0  0  0  0  0  0  0  0  0  0  0
   -0.0068   -0.5886   -0.0003 C   0  0  0  0  0  0  0  0  0  0  0  0
   -1.4679   -0.6799   -0.0003 C   0  0  0  0  0  0  0  0  0  0  0  0
   -2.2186    0.5250   -0.0001 C   0  0  0  0  0  0  0  0  0  0  0  0
    2.0450    0.5005   -0.0008 C   0  0  0  0  0  0  0  0  0  0  0  0
   -0.1613    1.8254   -0.0005 C   0  0  0  0  0  0  0  0  0  0  0  0
    2.1396   -0.9058    0.0002 C   0  0  0  0  0  0  0  0  0  0  0  0
   -2.0780   -1.9376   -0.0003 C   0  0  0  0  0  0  0  0  0  0  0  0
   -3.6181    0.3981    0.0001 C   0  0  0  0  0  0  0  0  0  0  0  0
    3.1596    1.3139   -0.0012 C   0  0  0  0  0  0  0  0  0  0  0  0
   -2.3529    2.9997    0.0020 C   0  0  0  0  0  0  0  0  0  0  0  0
    3.3797   -1.5216    0.0013 C   0  0  0  0  0  0  0  0  0  0  0  0
   -3.4663   -2.0221   -0.0003 C   0  0  0  0  0  0  0  0  0  0  0  0
   -4.2331   -0.8596    0.0000 C   0  0  0  0  0  0  0  0  0  0  0  0
    4.4099    0.6920   -0.0003 C   0  0  0  0  0  0  0  0  0  0  0  0
    4.5192   -0.7109    0.0010 C   0  0  0  0  0  0  0  0  0  0  0  0
    0.2538    2.8273   -0.0003 H   0  0  0  0  0  0  0  0  0  0  0  0
   -1.4916   -2.8519   -0.0005 H   0  0  0  0  0  0  0  0  0  0  0  0
   -4.2669    1.2699    0.0002 H   0  0  0  0  0  0  0  0  0  0  0  0
    3.0781    2.3948   -0.0020 H   0  0  0  0  0  0  0  0  0  0  0  0
   -2.9817    3.0530    0.8979 H   0  0  0  0  0  0  0  0  0  0  0  0
   -2.9835    3.0548   -0.8923 H   0  0  0  0  0  0  0  0  0  0  0  0
   -1.7244    3.8981    0.0023 H   0  0  0  0  0  0  0  0  0  0  0  0
    3.4720   -2.6023    0.0023 H   0  0  0  0  0  0  0  0  0  0  0  0
   -3.9523   -2.9933   -0.0003 H   0  0  0  0  0  0  0  0  0  0  0  0
   -5.3176   -0.9282    0.0000 H   0  0  0  0  0  0  0  0  0  0  0  0
    5.3122    1.2980   -0.0006 H   0  0  0  0  0  0  0  0  0  0  0  0
    5.5046   -1.1697    0.0018 H   0  0  0  0  0  0  0  0  0  0  0  0
  1  6  1  0  0  0  0
  1  8  1  0  0  0  0
  1 13  1  0  0  0  0
  2  4  2  0  0  0  0
  2  9  1  0  0  0  0
  3  4  1  0  0  0  0
  3  7  1  0  0  0  0
  3  8  2  0  0  0  0
  4  5  1  0  0  0  0
  5  6  1  0  0  0  0
  5 10  2  0  0  0  0
  6 11  2  0  0  0  0
  7  9  1  0  0  0  0
  7 12  2  0  0  0  0
  8 19  1  0  0  0  0
  9 14  2  0  0  0  0
 10 15  1  0  0  0  0
 10 20  1  0  0  0  0
 11 16  1  0  0  0  0
 11 21  1  0  0  0  0
 12 17  1  0  0  0  0
 12 22  1  0  0  0  0
 13 23  1  0  0  0  0
 13 24  1  0  0  0  0
 13 25  1  0  0  0  0
 14 18  1  0  0  0  0
 14 26  1  0  0  0  0
 15 16  2  0  0  0  0
 15 27  1  0  0  0  0
 16 28  1  0  0  0  0
 17 18  2  0  0  0  0
 17 29  1  0  0  0  0
 18 30  1  0  0  0  0
M  END
> <PUBCHEM_COMPOUND_CID>
380925

> <PUBCHEM_CONFORMER_RMSD>
0.4

> <PUBCHEM_CONFORMER_DIVERSEORDER>
1

> <PUBCHEM_MMFF94_PARTIAL_CHARGES>
27
1 -0.57
10 -0.15
11 -0.15
12 -0.15
13 0.37
14 -0.15
15 -0.15
16 -0.15
17 -0.15
18 -0.15
19 0.15
2 -0.63
20 0.15
21 0.15
22 0.15
26 0.15
27 0.15
28 0.15
29 0.15
3 -0.01
30 0.15
4 0.35
5 0.09
6 0.1
7 0.03
8 -0.05
9 0.18

> <PUBCHEM_EFFECTIVE_ROTOR_COUNT>
0

> <PUBCHEM_PHARMACOPHORE_FEATURES>
6
1 1 cation
1 2 acceptor
5 2 3 4 7 9 rings
6 1 3 4 5 6 8 rings
6 5 6 10 11 15 16 rings
6 7 9 12 14 17 18 rings

> <PUBCHEM_HEAVY_ATOM_COUNT>
18

> <PUBCHEM_ATOM_DEF_STEREO_COUNT>
0

> <PUBCHEM_ATOM_UDEF_STEREO_COUNT>
0

> <PUBCHEM_BOND_DEF_STEREO_COUNT>
0

> <PUBCHEM_BOND_UDEF_STEREO_COUNT>
0

> <PUBCHEM_ISOTOPIC_ATOM_COUNT>
0

> <PUBCHEM_COMPONENT_COUNT>
1

> <PUBCHEM_CACTVS_TAUTO_COUNT>
1

> <PUBCHEM_CONFORMER_ID>
0005CFFD00000001

> <PUBCHEM_MMFF94_ENERGY>
73.5153

> <PUBCHEM_FEATURE_SELFOVERLAP>
30.663

> <PUBCHEM_SHAPE_FINGERPRINT>
10319926 262 18196628745957786298
10493431 412 18126294034721634769
10608611 8 18412542085549106128
10616163 171 18411983546226553966
10618630 7 18409167744181520607
10967382 1 18194402422834785638
11132069 177 18411132558659824536
11578080 2 17345450730696882241
11806522 49 18335983159457488110
12032990 46 18410577322346529267
12107183 9 17686613551009604754
12403259 226 18413101779875307576
13140716 1 18266749167388694129
13221675 6 18411417323460300886
13288520 33 18412829054068485398
138480 1 15600327427194929637
14115302 16 17822299036448196255
14178342 30 18192415404077097514
14790565 3 18052544266508537377
15196674 1 18410575097553262055
15442244 35 18265049124849054746
15536298 74 18341895212305863978
16945 1 18338517439148859941
17357779 13 18264468724501331253
17492 89 18409448042580792226
17804303 29 18342178877267626177
18186145 218 17749382685174288894
19141452 34 18201723998414834103
200 152 18131626816291912751
20510252 161 18271526407687694729
21029758 11 18341325682536573625
21267235 1 18410302431612971979
21501502 16 18336828589636775184
221490 88 17974855282854789283
2297311 6 18342189868347412790
23402539 116 18342450457125029311
23463225 33 18410294735115583958
23557571 272 18201166468509375100
23559900 14 18412538795830809360
2748010 2 18411976987763584972
2871803 45 18335697251905924286
335352 9 18050285860543514268
34934 24 18410285939275912119
350125 39 18411138065415014040
4214541 1 18410855417442447300
474 4 17241336914185788364
5104073 3 18340203003854983080
69090 78 18342735212987365871
7097593 13 17682383759610739138
7364860 26 18124595546258192136
77779 3 18411139143003094102
8809292 202 18333734653884082875
9709674 26 18341618066371773622

> <PUBCHEM_SHAPE_MULTIPOLES>
360.47
8.19
2.49
0.61
3.37
1.01
0
-1.75
0
-1.71
0
0
0
0

> <PUBCHEM_SHAPE_SELFOVERLAP>
821.225

> <PUBCHEM_SHAPE_VOLUME>
186.9

> <PUBCHEM_COORDINATE_TYPE>
2
5
10

$$$$
