JBB25_0002
  -OEChem-07172407072D

 69 71  0     1  0  0  0  0  0999 V2000
    6.0010   -2.0000    0.0000 O   0  0  0  0  0  0  0  0  0  0  0  0
    7.7331   -2.0000    0.0000 O   0  0  0  0  0  0  0  0  0  0  0  0
    7.7331   -4.0000    0.0000 O   0  0  0  0  0  0  0  0  0  0  0  0
    6.0010   -5.0000    0.0000 O   0  0  0  0  0  0  0  0  0  0  0  0
    4.2690   -4.0000    0.0000 O   0  0  0  0  0  0  0  0  0  0  0  0
    4.2690   -1.0000    0.0000 O   0  0  0  0  0  0  0  0  0  0  0  0
   12.0632    0.5000    0.0000 O   0  0  0  0  0  0  0  0  0  0  0  0
   12.0632    2.5000    0.0000 O   0  0  0  0  0  0  0  0  0  0  0  0
    4.2690    5.0000    0.0000 O   0  0  0  0  0  0  0  0  0  0  0  0
    2.5369    4.0000    0.0000 O   0  0  0  0  0  0  0  0  0  0  0  0
    6.8671   -3.5000    0.0000 C   0  0  2  0  0  0  0  0  0  0  0  0
    6.0010   -4.0000    0.0000 C   0  0  2  0  0  0  0  0  0  0  0  0
    5.1350   -3.5000    0.0000 C   0  0  1  0  0  0  0  0  0  0  0  0
    6.8671   -2.5000    0.0000 C   0  0  1  0  0  0  0  0  0  0  0  0
    5.1350   -2.5000    0.0000 C   0  0  1  0  0  0  0  0  0  0  0  0
    7.7331   -1.0000    0.0000 C   0  0  2  0  0  0  0  0  0  0  0  0
    6.8671   -0.5000    0.0000 C   0  0  0  0  0  0  0  0  0  0  0  0
    8.5991   -0.5000    0.0000 C   0  0  0  0  0  0  0  0  0  0  0  0
    4.2690   -2.0000    0.0000 C   0  0  0  0  0  0  0  0  0  0  0  0
    6.8671    0.5000    0.0000 C   0  0  0  0  0  0  0  0  0  0  0  0
    8.5991    0.5000    0.0000 C   0  0  0  0  0  0  0  0  0  0  0  0
    6.0010    1.0000    0.0000 C   0  0  0  0  0  0  0  0  0  0  0  0
    6.0010    2.0000    0.0000 C   0  0  0  0  0  0  0  0  0  0  0  0
    9.4651    1.0000    0.0000 C   0  0  0  0  0  0  0  0  0  0  0  0
    5.1350    2.5000    0.0000 C   0  0  0  0  0  0  0  0  0  0  0  0
   10.3312    0.5000    0.0000 C   0  0  0  0  0  0  0  0  0  0  0  0
    9.4651    2.0000    0.0000 C   0  0  0  0  0  0  0  0  0  0  0  0
    5.1350    3.5000    0.0000 C   0  0  0  0  0  0  0  0  0  0  0  0
    4.2690    2.0000    0.0000 C   0  0  0  0  0  0  0  0  0  0  0  0
   11.1972    1.0000    0.0000 C   0  0  0  0  0  0  0  0  0  0  0  0
   10.3312    2.5000    0.0000 C   0  0  0  0  0  0  0  0  0  0  0  0
   11.1972    2.0000    0.0000 C   0  0  0  0  0  0  0  0  0  0  0  0
    4.2690    4.0000    0.0000 C   0  0  0  0  0  0  0  0  0  0  0  0
    3.4030    2.5000    0.0000 C   0  0  0  0  0  0  0  0  0  0  0  0
    3.4030    3.5000    0.0000 C   0  0  0  0  0  0  0  0  0  0  0  0
    6.8671   -4.1200    0.0000 H   0  0  0  0  0  0  0  0  0  0  0  0
    5.4641   -4.3100    0.0000 H   0  0  0  0  0  0  0  0  0  0  0  0
    7.4040   -2.8100    0.0000 H   0  0  0  0  0  0  0  0  0  0  0  0
    5.1350   -4.1200    0.0000 H   0  0  0  0  0  0  0  0  0  0  0  0
    5.1350   -1.8800    0.0000 H   0  0  0  0  0  0  0  0  0  0  0  0
    7.1962   -1.3100    0.0000 H   0  0  0  0  0  0  0  0  0  0  0  0
    6.2565   -0.3923    0.0000 H   0  0  0  0  0  0  0  0  0  0  0  0
    6.6550   -1.0826    0.0000 H   0  0  0  0  0  0  0  0  0  0  0  0
    8.8112   -1.0826    0.0000 H   0  0  0  0  0  0  0  0  0  0  0  0
    9.2097   -0.3923    0.0000 H   0  0  0  0  0  0  0  0  0  0  0  0
    3.6584   -1.8923    0.0000 H   0  0  0  0  0  0  0  0  0  0  0  0
    4.0569   -2.5826    0.0000 H   0  0  0  0  0  0  0  0  0  0  0  0
    7.4776    0.3923    0.0000 H   0  0  0  0  0  0  0  0  0  0  0  0
    7.0791    1.0826    0.0000 H   0  0  0  0  0  0  0  0  0  0  0  0
    8.3871    1.0826    0.0000 H   0  0  0  0  0  0  0  0  0  0  0  0
    7.9885    0.3923    0.0000 H   0  0  0  0  0  0  0  0  0  0  0  0
    5.3905    1.1077    0.0000 H   0  0  0  0  0  0  0  0  0  0  0  0
    5.7890    0.4174    0.0000 H   0  0  0  0  0  0  0  0  0  0  0  0
    8.2700   -3.6900    0.0000 H   0  0  0  0  0  0  0  0  0  0  0  0
    5.4641   -5.3100    0.0000 H   0  0  0  0  0  0  0  0  0  0  0  0
    3.7320   -3.6900    0.0000 H   0  0  0  0  0  0  0  0  0  0  0  0
    6.6116    1.8923    0.0000 H   0  0  0  0  0  0  0  0  0  0  0  0
    6.2131    2.5826    0.0000 H   0  0  0  0  0  0  0  0  0  0  0  0
    3.7320   -0.6900    0.0000 H   0  0  0  0  0  0  0  0  0  0  0  0
   10.3312   -0.1200    0.0000 H   0  0  0  0  0  0  0  0  0  0  0  0
    8.9282    2.3100    0.0000 H   0  0  0  0  0  0  0  0  0  0  0  0
    5.6720    3.8100    0.0000 H   0  0  0  0  0  0  0  0  0  0  0  0
    4.2690    1.3800    0.0000 H   0  0  0  0  0  0  0  0  0  0  0  0
   10.3312    3.1200    0.0000 H   0  0  0  0  0  0  0  0  0  0  0  0
    2.8660    2.1900    0.0000 H   0  0  0  0  0  0  0  0  0  0  0  0
   12.6002    0.8100    0.0000 H   0  0  0  0  0  0  0  0  0  0  0  0
   12.0632    3.1200    0.0000 H   0  0  0  0  0  0  0  0  0  0  0  0
    4.8059    5.3100    0.0000 H   0  0  0  0  0  0  0  0  0  0  0  0
    2.0000    3.6900    0.0000 H   0  0  0  0  0  0  0  0  0  0  0  0
  1 14  1  0  0  0  0
  1 15  1  0  0  0  0
 14  2  1  1  0  0  0
 16  2  1  6  0  0  0
 11  3  1  6  0  0  0
  3 54  1  0  0  0  0
 12  4  1  1  0  0  0
  4 55  1  0  0  0  0
 13  5  1  6  0  0  0
  5 56  1  0  0  0  0
  6 19  1  0  0  0  0
  6 59  1  0  0  0  0
  7 30  1  0  0  0  0
  7 66  1  0  0  0  0
  8 32  1  0  0  0  0
  8 67  1  0  0  0  0
  9 33  1  0  0  0  0
  9 68  1  0  0  0  0
 10 35  1  0  0  0  0
 10 69  1  0  0  0  0
 11 12  1  0  0  0  0
 11 14  1  0  0  0  0
 11 36  1  0  0  0  0
 12 13  1  0  0  0  0
 12 37  1  0  0  0  0
 13 15  1  0  0  0  0
 13 39  1  0  0  0  0
 14 38  1  0  0  0  0
 15 19  1  1  0  0  0
 15 40  1  0  0  0  0
 16 17  1  0  0  0  0
 16 18  1  0  0  0  0
 16 41  1  0  0  0  0
 17 20  1  0  0  0  0
 17 42  1  0  0  0  0
 17 43  1  0  0  0  0
 18 21  1  0  0  0  0
 18 44  1  0  0  0  0
 18 45  1  0  0  0  0
 19 46  1  0  0  0  0
 19 47  1  0  0  0  0
 20 22  1  0  0  0  0
 20 48  1  0  0  0  0
 20 49  1  0  0  0  0
 21 24  1  0  0  0  0
 21 50  1  0  0  0  0
 21 51  1  0  0  0  0
 22 23  1  0  0  0  0
 22 52  1  0  0  0  0
 22 53  1  0  0  0  0
 23 25  1  0  0  0  0
 23 57  1  0  0  0  0
 23 58  1  0  0  0  0
 24 26  2  0  0  0  0
 24 27  1  0  0  0  0
 25 28  2  0  0  0  0
 25 29  1  0  0  0  0
 26 30  1  0  0  0  0
 26 60  1  0  0  0  0
 27 31  2  0  0  0  0
 27 61  1  0  0  0  0
 28 33  1  0  0  0  0
 28 62  1  0  0  0  0
 29 34  2  0  0  0  0
 29 63  1  0  0  0  0
 30 32  2  0  0  0  0
 31 32  1  0  0  0  0
 31 64  1  0  0  0  0
 33 35  2  0  0  0  0
 34 35  1  0  0  0  0
 34 65  1  0  0  0  0
M  END
> <PUBCHEM_COMPOUND_CID>
10097263

> <PUBCHEM_COMPOUND_CANONICALIZED>
1

> <PUBCHEM_CACTVS_COMPLEXITY>
609

> <PUBCHEM_CACTVS_HBOND_ACCEPTOR>
10

> <PUBCHEM_CACTVS_HBOND_DONOR>
8

> <PUBCHEM_CACTVS_ROTATABLE_BOND>
11

> <PUBCHEM_CACTVS_SUBSKEYS>
AAADcfB4PAAAAAAAAAAAAAAAAAAAAAAAAAA0YIAAAAAAAAABQAAAGgAACAAADBSwmAMwDoAABgCAAiBCAAACAAAgIAAIiAAGiIgZNiKCERKicAElwBEPmAfA4PwOIAABAAAAQABAAAIAAACAAAAAAAAAAA==

> <PUBCHEM_IUPAC_OPENEYE_NAME>
(2R,3R,4S,5S,6R)-2-[(1R)-5-(3,4-dihydroxyphenyl)-1-[2-(3,4-dihydroxyphenyl)ethyl]pentoxy]-6-(hydroxymethyl)tetrahydropyran-3,4,5-triol

> <PUBCHEM_IUPAC_CAS_NAME>
(2R,3R,4S,5S,6R)-2-[(3R)-1,7-bis(3,4-dihydroxyphenyl)heptan-3-yl]oxy-6-(hydroxymethyl)oxane-3,4,5-triol

> <PUBCHEM_IUPAC_NAME_MARKUP>
(2<I>R</I>,3<I>R</I>,4<I>S</I>,5<I>S</I>,6<I>R</I>)-2-[(3<I>R</I>)-1,7-bis(3,4-dihydroxyphenyl)heptan-3-yl]oxy-6-(hydroxymethyl)oxane-3,4,5-triol

> <PUBCHEM_IUPAC_NAME>
(2R,3R,4S,5S,6R)-2-[(3R)-1,7-bis(3,4-dihydroxyphenyl)heptan-3-yl]oxy-6-(hydroxymethyl)oxane-3,4,5-triol

> <PUBCHEM_IUPAC_SYSTEMATIC_NAME>
(2R,3R,4S,5S,6R)-2-[(3R)-1,7-bis[3,4-bis(oxidanyl)phenyl]heptan-3-yl]oxy-6-(hydroxymethyl)oxane-3,4,5-triol

> <PUBCHEM_IUPAC_TRADITIONAL_NAME>
(2R,3R,4S,5S,6R)-2-[(1R)-5-(3,4-dihydroxyphenyl)-1-[2-(3,4-dihydroxyphenyl)ethyl]pentoxy]-6-methylol-tetrahydropyran-3,4,5-triol

> <PUBCHEM_IUPAC_INCHI>
InChI=1S/C25H34O10/c26-13-21-22(31)23(32)24(33)25(35-21)34-16(8-5-15-7-10-18(28)20(30)12-15)4-2-1-3-14-6-9-17(27)19(29)11-14/h6-7,9-12,16,21-33H,1-5,8,13H2/t16-,21-,22-,23+,24-,25-/m1/s1

> <PUBCHEM_IUPAC_INCHIKEY>
LSEDQFLRUJOXDX-SBOHWPTNSA-N

> <PUBCHEM_XLOGP3_AA>
2.1

> <PUBCHEM_EXACT_MASS>
494.21519728

> <PUBCHEM_MOLECULAR_FORMULA>
C25H34O10

> <PUBCHEM_MOLECULAR_WEIGHT>
494.5

> <PUBCHEM_OPENEYE_CAN_SMILES>
C1=CC(=C(C=C1CCCCC(CCC2=CC(=C(C=C2)O)O)OC3C(C(C(C(O3)CO)O)O)O)O)O

> <PUBCHEM_OPENEYE_ISO_SMILES>
C1=CC(=C(C=C1CCCC[C@H](CCC2=CC(=C(C=C2)O)O)O[C@H]3[C@@H]([C@H]([C@@H]([C@H](O3)CO)O)O)O)O)O

> <PUBCHEM_CACTVS_TPSA>
180

> <PUBCHEM_MONOISOTOPIC_WEIGHT>
494.21519728

> <PUBCHEM_TOTAL_CHARGE>
0

> <PUBCHEM_HEAVY_ATOM_COUNT>
35

> <PUBCHEM_ATOM_DEF_STEREO_COUNT>
6

> <PUBCHEM_ATOM_UDEF_STEREO_COUNT>
0

> <PUBCHEM_BOND_DEF_STEREO_COUNT>
0

> <PUBCHEM_BOND_UDEF_STEREO_COUNT>
0

> <PUBCHEM_ISOTOPIC_ATOM_COUNT>
0

> <PUBCHEM_COMPONENT_COUNT>
1

> <PUBCHEM_CACTVS_TAUTO_COUNT>
-1

> <PUBCHEM_COORDINATE_TYPE>
1
5
255

> <PUBCHEM_BONDANNOTATIONS>
15  19  5
14  2  5
16  2  6
24  26  8
24  27  8
25  28  8
25  29  8
26  30  8
27  31  8
28  33  8
29  34  8
11  3  6
30  32  8
31  32  8
33  35  8
34  35  8
12  4  5
13  5  6

$$$$
