Lupeol, trifluoroacetate
  -OEChem-12152007062D

 86 90  0     1  0  0  0  0  0999 V2000
    3.3646   -3.5508    0.0000 F   0  0  0  0  0  0  0  0  0  0  0  0
    2.0000   -3.1796    0.0000 F   0  0  0  0  0  0  0  0  0  0  0  0
    2.3713   -1.8150    0.0000 F   0  0  0  0  0  0  0  0  0  0  0  0
    4.6000   -2.6896    0.0000 O   0  0  0  0  0  0  0  0  0  0  0  0
    3.7398   -1.1862    0.0000 O   0  0  0  0  0  0  0  0  0  0  0  0
    9.1270   -1.1372    0.0000 C   0  0  3  0  0  0  0  0  0  0  0  0
    9.9931   -0.6372    0.0000 C   0  0  3  0  0  0  0  0  0  0  0  0
    8.2610   -0.6372    0.0000 C   0  0  3  0  0  0  0  0  0  0  0  0
    9.9931    0.3628    0.0000 C   0  0  3  0  0  0  0  0  0  0  0  0
    7.3510   -1.1441    0.0000 C   0  0  3  0  0  0  0  0  0  0  0  0
   10.8870    0.8974    0.0000 C   0  0  3  0  0  0  0  0  0  0  0  0
   11.7931    0.3836    0.0000 C   0  0  3  0  0  0  0  0  0  0  0  0
    7.3430   -2.1857    0.0000 C   0  0  3  0  0  0  0  0  0  0  0  0
   10.8870   -1.1719    0.0000 C   0  0  0  0  0  0  0  0  0  0  0  0
    9.1431   -2.1788    0.0000 C   0  0  0  0  0  0  0  0  0  0  0  0
    8.2610    0.3628    0.0000 C   0  0  0  0  0  0  0  0  0  0  0  0
    9.1270    0.8628    0.0000 C   0  0  0  0  0  0  0  0  0  0  0  0
   11.7931   -0.6581    0.0000 C   0  0  0  0  0  0  0  0  0  0  0  0
    8.2451   -2.7065    0.0000 C   0  0  0  0  0  0  0  0  0  0  0  0
   11.0971    1.9113    0.0000 C   0  0  3  0  0  0  0  0  0  0  0  0
    6.4076   -2.7354    0.0000 C   0  0  0  0  0  0  0  0  0  0  0  0
    6.4242   -0.5800    0.0000 C   0  0  0  0  0  0  0  0  0  0  0  0
    9.7698   -1.9033    0.0000 C   0  0  0  0  0  0  0  0  0  0  0  0
   10.3352   -1.5769    0.0000 C   0  0  0  0  0  0  0  0  0  0  0  0
   12.5554    1.0843    0.0000 C   0  0  0  0  0  0  0  0  0  0  0  0
   12.1261    2.0266    0.0000 C   0  0  0  0  0  0  0  0  0  0  0  0
    7.3587   -0.1441    0.0000 C   0  0  0  0  0  0  0  0  0  0  0  0
    5.4679   -2.1929    0.0000 C   0  0  3  0  0  0  0  0  0  0  0  0
    5.4763   -1.1080    0.0000 C   0  0  0  0  0  0  0  0  0  0  0  0
   12.6629   -0.1097    0.0000 C   0  0  0  0  0  0  0  0  0  0  0  0
    5.9109   -3.6034    0.0000 C   0  0  0  0  0  0  0  0  0  0  0  0
    6.9109   -3.5995    0.0000 C   0  0  0  0  0  0  0  0  0  0  0  0
   10.4236    2.6505    0.0000 C   0  0  0  0  0  0  0  0  0  0  0  0
   10.7269    3.6034    0.0000 C   0  0  0  0  0  0  0  0  0  0  0  0
    9.4467    2.4367    0.0000 C   0  0  0  0  0  0  0  0  0  0  0  0
    3.7359   -2.1862    0.0000 C   0  0  0  0  0  0  0  0  0  0  0  0
    2.8680   -2.6829    0.0000 C   0  0  0  0  0  0  0  0  0  0  0  0
    8.7980   -0.3272    0.0000 H   0  0  0  0  0  0  0  0  0  0  0  0
    9.9883    0.9827    0.0000 H   0  0  0  0  0  0  0  0  0  0  0  0
   10.3817    1.2567    0.0000 H   0  0  0  0  0  0  0  0  0  0  0  0
    7.3454   -2.8057    0.0000 H   0  0  0  0  0  0  0  0  0  0  0  0
   10.4824   -1.6417    0.0000 H   0  0  0  0  0  0  0  0  0  0  0  0
   11.2806   -1.6509    0.0000 H   0  0  0  0  0  0  0  0  0  0  0  0
    9.3611   -2.7592    0.0000 H   0  0  0  0  0  0  0  0  0  0  0  0
    9.7522   -2.0632    0.0000 H   0  0  0  0  0  0  0  0  0  0  0  0
    8.0490    0.9454    0.0000 H   0  0  0  0  0  0  0  0  0  0  0  0
    7.6504    0.2551    0.0000 H   0  0  0  0  0  0  0  0  0  0  0  0
    9.5256    1.3377    0.0000 H   0  0  0  0  0  0  0  0  0  0  0  0
    8.7285    1.3377    0.0000 H   0  0  0  0  0  0  0  0  0  0  0  0
   12.0021   -1.2418    0.0000 H   0  0  0  0  0  0  0  0  0  0  0  0
   12.4039   -0.5520    0.0000 H   0  0  0  0  0  0  0  0  0  0  0  0
    7.8478   -3.1825    0.0000 H   0  0  0  0  0  0  0  0  0  0  0  0
    8.6460   -3.1794    0.0000 H   0  0  0  0  0  0  0  0  0  0  0  0
   11.3156    2.4916    0.0000 H   0  0  0  0  0  0  0  0  0  0  0  0
    6.8324   -0.1134    0.0000 H   0  0  0  0  0  0  0  0  0  0  0  0
    6.0343   -0.0980    0.0000 H   0  0  0  0  0  0  0  0  0  0  0  0
    9.2949   -2.3018    0.0000 H   0  0  0  0  0  0  0  0  0  0  0  0
   10.1684   -2.3782    0.0000 H   0  0  0  0  0  0  0  0  0  0  0  0
   10.2448   -1.5048    0.0000 H   0  0  0  0  0  0  0  0  0  0  0  0
    9.7526   -1.7890    0.0000 H   0  0  0  0  0  0  0  0  0  0  0  0
   10.5473   -2.1595    0.0000 H   0  0  0  0  0  0  0  0  0  0  0  0
   10.9178   -1.3648    0.0000 H   0  0  0  0  0  0  0  0  0  0  0  0
   12.9247    0.5863    0.0000 H   0  0  0  0  0  0  0  0  0  0  0  0
   13.0895    1.3992    0.0000 H   0  0  0  0  0  0  0  0  0  0  0  0
   12.7142    2.2229    0.0000 H   0  0  0  0  0  0  0  0  0  0  0  0
   11.9927    2.6321    0.0000 H   0  0  0  0  0  0  0  0  0  0  0  0
    7.9787   -0.1489    0.0000 H   0  0  0  0  0  0  0  0  0  0  0  0
    7.3635    0.4759    0.0000 H   0  0  0  0  0  0  0  0  0  0  0  0
    6.7387   -0.1393    0.0000 H   0  0  0  0  0  0  0  0  0  0  0  0
    5.4667   -2.8129    0.0000 H   0  0  0  0  0  0  0  0  0  0  0  0
    5.2717   -0.5227    0.0000 H   0  0  0  0  0  0  0  0  0  0  0  0
    4.8646   -1.2093    0.0000 H   0  0  0  0  0  0  0  0  0  0  0  0
   12.3571   -0.6490    0.0000 H   0  0  0  0  0  0  0  0  0  0  0  0
   13.2022   -0.4156    0.0000 H   0  0  0  0  0  0  0  0  0  0  0  0
   12.9688    0.4296    0.0000 H   0  0  0  0  0  0  0  0  0  0  0  0
    5.3728   -3.2954    0.0000 H   0  0  0  0  0  0  0  0  0  0  0  0
    5.6030   -4.1415    0.0000 H   0  0  0  0  0  0  0  0  0  0  0  0
    6.4490   -3.9113    0.0000 H   0  0  0  0  0  0  0  0  0  0  0  0
    6.3752   -3.9116    0.0000 H   0  0  0  0  0  0  0  0  0  0  0  0
    7.2230   -4.1352    0.0000 H   0  0  0  0  0  0  0  0  0  0  0  0
    7.4466   -3.2874    0.0000 H   0  0  0  0  0  0  0  0  0  0  0  0
   11.3177    3.4153    0.0000 H   0  0  0  0  0  0  0  0  0  0  0  0
   10.9149    4.1941    0.0000 H   0  0  0  0  0  0  0  0  0  0  0  0
   10.1361    3.7914    0.0000 H   0  0  0  0  0  0  0  0  0  0  0  0
    9.0291    2.8950    0.0000 H   0  0  0  0  0  0  0  0  0  0  0  0
    9.2586    1.8459    0.0000 H   0  0  0  0  0  0  0  0  0  0  0  0
  1 37  1  0  0  0  0
  2 37  1  0  0  0  0
  3 37  1  0  0  0  0
  4 28  1  0  0  0  0
  4 36  1  0  0  0  0
  5 36  2  0  0  0  0
  6  7  1  0  0  0  0
  6  8  1  0  0  0  0
  6 15  1  0  0  0  0
  6 23  1  0  0  0  0
  7  9  1  0  0  0  0
  7 14  1  0  0  0  0
  7 24  1  0  0  0  0
  8 10  1  0  0  0  0
  8 16  1  0  0  0  0
  8 38  1  0  0  0  0
  9 11  1  0  0  0  0
  9 17  1  0  0  0  0
  9 39  1  0  0  0  0
 10 13  1  0  0  0  0
 10 22  1  0  0  0  0
 10 27  1  0  0  0  0
 11 12  1  0  0  0  0
 11 20  1  0  0  0  0
 11 40  1  0  0  0  0
 12 18  1  0  0  0  0
 12 25  1  0  0  0  0
 12 30  1  0  0  0  0
 13 19  1  0  0  0  0
 13 21  1  0  0  0  0
 13 41  1  0  0  0  0
 14 18  1  0  0  0  0
 14 42  1  0  0  0  0
 14 43  1  0  0  0  0
 15 19  1  0  0  0  0
 15 44  1  0  0  0  0
 15 45  1  0  0  0  0
 16 17  1  0  0  0  0
 16 46  1  0  0  0  0
 16 47  1  0  0  0  0
 17 48  1  0  0  0  0
 17 49  1  0  0  0  0
 18 50  1  0  0  0  0
 18 51  1  0  0  0  0
 19 52  1  0  0  0  0
 19 53  1  0  0  0  0
 20 26  1  0  0  0  0
 20 33  1  0  0  0  0
 20 54  1  0  0  0  0
 21 28  1  0  0  0  0
 21 31  1  0  0  0  0
 21 32  1  0  0  0  0
 22 29  1  0  0  0  0
 22 55  1  0  0  0  0
 22 56  1  0  0  0  0
 23 57  1  0  0  0  0
 23 58  1  0  0  0  0
 23 59  1  0  0  0  0
 24 60  1  0  0  0  0
 24 61  1  0  0  0  0
 24 62  1  0  0  0  0
 25 26  1  0  0  0  0
 25 63  1  0  0  0  0
 25 64  1  0  0  0  0
 26 65  1  0  0  0  0
 26 66  1  0  0  0  0
 27 67  1  0  0  0  0
 27 68  1  0  0  0  0
 27 69  1  0  0  0  0
 28 29  1  0  0  0  0
 28 70  1  0  0  0  0
 29 71  1  0  0  0  0
 29 72  1  0  0  0  0
 30 73  1  0  0  0  0
 30 74  1  0  0  0  0
 30 75  1  0  0  0  0
 31 76  1  0  0  0  0
 31 77  1  0  0  0  0
 31 78  1  0  0  0  0
 32 79  1  0  0  0  0
 32 80  1  0  0  0  0
 32 81  1  0  0  0  0
 33 34  1  0  0  0  0
 33 35  2  0  0  0  0
 34 82  1  0  0  0  0
 34 83  1  0  0  0  0
 34 84  1  0  0  0  0
 35 85  1  0  0  0  0
 35 86  1  0  0  0  0
 36 37  1  0  0  0  0
M  END
> <PUBCHEM_COMPOUND_CID>
91704083

> <PUBCHEM_COMPOUND_CANONICALIZED>
1

> <PUBCHEM_CACTVS_COMPLEXITY>
970

> <PUBCHEM_CACTVS_HBOND_ACCEPTOR>
5

> <PUBCHEM_CACTVS_HBOND_DONOR>
0

> <PUBCHEM_CACTVS_ROTATABLE_BOND>
3

> <PUBCHEM_CACTVS_SUBSKEYS>
AAADcfB8MYAAAAAAAAAAAAAAAAAAAYAAAAAwYMGAAAAAAGDAAAAAGwAAAAAADxSggBICCAAABACIAgDSCAAAAAAgAAAAAAAAAAgAAAIAAQACAAAEgAAAAAGAwPAPgAAAAAAAAADAAAYAADAAAQAACAAAAA==

> <PUBCHEM_IUPAC_OPENEYE_NAME>
(1-isopropenyl-3a,5a,5b,8,8,11a-hexamethyl-1,2,3,4,5,6,7,7a,9,10,11,11b,12,13,13a,13b-hexadecahydrocyclopenta[a]chrysen-9-yl) 2,2,2-trifluoroacetate

> <PUBCHEM_IUPAC_CAS_NAME>
2,2,2-trifluoroacetic acid [3a,5a,5b,8,8,11a-hexamethyl-1-(1-methylethenyl)-1,2,3,4,5,6,7,7a,9,10,11,11b,12,13,13a,13b-hexadecahydrocyclopenta[a]chrysen-9-yl] ester

> <PUBCHEM_IUPAC_NAME_MARKUP>
(3<I>a</I>,5<I>a</I>,5<I>b</I>,8,8,11<I>a</I>-hexamethyl-1-prop-1-en-2-yl-1,2,3,4,5,6,7,7<I>a</I>,9,10,11,11<I>b</I>,12,13,13<I>a</I>,13<I>b</I>-hexadecahydrocyclopenta[a]chrysen-9-yl) 2,2,2-trifluoroacetate

> <PUBCHEM_IUPAC_NAME>
(3a,5a,5b,8,8,11a-hexamethyl-1-prop-1-en-2-yl-1,2,3,4,5,6,7,7a,9,10,11,11b,12,13,13a,13b-hexadecahydrocyclopenta[a]chrysen-9-yl) 2,2,2-trifluoroacetate

> <PUBCHEM_IUPAC_SYSTEMATIC_NAME>
(3a,5a,5b,8,8,11a-hexamethyl-1-prop-1-en-2-yl-1,2,3,4,5,6,7,7a,9,10,11,11b,12,13,13a,13b-hexadecahydrocyclopenta[a]chrysen-9-yl) 2,2,2-tris(fluoranyl)ethanoate

> <PUBCHEM_IUPAC_TRADITIONAL_NAME>
2,2,2-trifluoroacetic acid (1-isopropenyl-3a,5a,5b,8,8,11a-hexamethyl-1,2,3,4,5,6,7,7a,9,10,11,11b,12,13,13a,13b-hexadecahydrocyclopenta[a]chrysen-9-yl) ester

> <PUBCHEM_IUPAC_INCHI>
InChI=1S/C32H49F3O2/c1-19(2)20-11-14-28(5)17-18-30(7)21(25(20)28)9-10-23-29(6)15-13-24(37-26(36)32(33,34)35)27(3,4)22(29)12-16-31(23,30)8/h20-25H,1,9-18H2,2-8H3

> <PUBCHEM_IUPAC_INCHIKEY>
BOPCUTUKBZHEOW-UHFFFAOYSA-N

> <PUBCHEM_XLOGP3_AA>
11.6

> <PUBCHEM_EXACT_MASS>
522.368465

> <PUBCHEM_MOLECULAR_FORMULA>
C32H49F3O2

> <PUBCHEM_MOLECULAR_WEIGHT>
522.7

> <PUBCHEM_OPENEYE_CAN_SMILES>
CC(=C)C1CCC2(C1C3CCC4C5(CCC(C(C5CCC4(C3(CC2)C)C)(C)C)OC(=O)C(F)(F)F)C)C

> <PUBCHEM_OPENEYE_ISO_SMILES>
CC(=C)C1CCC2(C1C3CCC4C5(CCC(C(C5CCC4(C3(CC2)C)C)(C)C)OC(=O)C(F)(F)F)C)C

> <PUBCHEM_CACTVS_TPSA>
26.3

> <PUBCHEM_MONOISOTOPIC_WEIGHT>
522.368465

> <PUBCHEM_TOTAL_CHARGE>
0

> <PUBCHEM_HEAVY_ATOM_COUNT>
37

> <PUBCHEM_ATOM_DEF_STEREO_COUNT>
0

> <PUBCHEM_ATOM_UDEF_STEREO_COUNT>
10

> <PUBCHEM_BOND_DEF_STEREO_COUNT>
0

> <PUBCHEM_BOND_UDEF_STEREO_COUNT>
0

> <PUBCHEM_ISOTOPIC_ATOM_COUNT>
0

> <PUBCHEM_COMPONENT_COUNT>
1

> <PUBCHEM_CACTVS_TAUTO_COUNT>
-1

> <PUBCHEM_COORDINATE_TYPE>
1
5
255

> <PUBCHEM_BONDANNOTATIONS>
10  27  3
11  20  3
12  30  3
13  19  3
20  33  3
28  4  3
6  23  3
7  24  3
8  16  3
9  17  3

$$$$
