MCSJ43_0007
  -OEChem-04162408222D

 60 62  0     1  0  0  0  0  0999 V2000
    4.5981   -0.0019    0.0000 O   0  0  0  0  0  0  0  0  0  0  0  0
    4.7801    1.3774    0.0000 O   0  0  0  0  0  0  0  0  0  0  0  0
    7.4337   -0.8492    0.0000 O   0  0  0  0  0  0  0  0  0  0  0  0
    8.0352    2.5622    0.0000 O   0  0  0  0  0  0  0  0  0  0  0  0
    5.4641   -1.5019    0.0000 C   0  0  2  0  0  0  0  0  0  0  0  0
    6.3301   -2.0019    0.0000 C   0  0  1  0  0  0  0  0  0  0  0  0
    4.5981   -2.0019    0.0000 C   0  0  1  0  0  0  0  0  0  0  0  0
    4.5981   -3.0019    0.0000 C   0  0  0  0  0  0  0  0  0  0  0  0
    6.3301   -3.0019    0.0000 C   0  0  0  0  0  0  0  0  0  0  0  0
    7.3149   -1.8283    0.0000 C   0  0  0  0  0  0  0  0  0  0  0  0
    5.4641   -3.5019    0.0000 C   0  0  0  0  0  0  0  0  0  0  0  0
    3.7320   -1.5019    0.0000 C   0  0  0  0  0  0  0  0  0  0  0  0
    5.4641   -0.5019    0.0000 C   0  0  0  0  0  0  0  0  0  0  0  0
    7.1962   -3.5019    0.0000 C   0  0  0  0  0  0  0  0  0  0  0  0
    7.9577   -2.5943    0.0000 C   0  0  0  0  0  0  0  0  0  0  0  0
    6.1069    0.2641    0.0000 C   0  0  0  0  0  0  0  0  0  0  0  0
    2.8660   -2.0019    0.0000 C   0  0  0  0  0  0  0  0  0  0  0  0
    3.7320   -0.5019    0.0000 C   0  0  0  0  0  0  0  0  0  0  0  0
    8.9425   -2.4207    0.0000 C   0  0  0  0  0  0  0  0  0  0  0  0
    5.7649    1.2038    0.0000 C   0  0  0  0  0  0  0  0  0  0  0  0
    7.0917    0.0905    0.0000 C   0  0  0  0  0  0  0  0  0  0  0  0
    2.0000   -1.5019    0.0000 C   0  0  0  0  0  0  0  0  0  0  0  0
    2.8660   -0.0019    0.0000 C   0  0  0  0  0  0  0  0  0  0  0  0
    2.0000   -0.5019    0.0000 C   0  0  0  0  0  0  0  0  0  0  0  0
    9.5853   -3.1867    0.0000 C   0  0  0  0  0  0  0  0  0  0  0  0
    9.2846   -1.4810    0.0000 C   0  0  0  0  0  0  0  0  0  0  0  0
    6.4077    1.9698    0.0000 C   0  0  0  0  0  0  0  0  0  0  0  0
    7.7345    0.8565    0.0000 C   0  0  0  0  0  0  0  0  0  0  0  0
    7.3925    1.7962    0.0000 C   0  0  0  0  0  0  0  0  0  0  0  0
    7.6932    3.5019    0.0000 C   0  0  0  0  0  0  0  0  0  0  0  0
    6.0010   -1.1919    0.0000 H   0  0  0  0  0  0  0  0  0  0  0  0
    6.4378   -1.3914    0.0000 H   0  0  0  0  0  0  0  0  0  0  0  0
    4.5981   -1.3819    0.0000 H   0  0  0  0  0  0  0  0  0  0  0  0
    3.9875   -2.8943    0.0000 H   0  0  0  0  0  0  0  0  0  0  0  0
    4.3860   -3.5845    0.0000 H   0  0  0  0  0  0  0  0  0  0  0  0
    7.8519   -1.5183    0.0000 H   0  0  0  0  0  0  0  0  0  0  0  0
    7.1029   -1.2457    0.0000 H   0  0  0  0  0  0  0  0  0  0  0  0
    5.4641   -4.1219    0.0000 H   0  0  0  0  0  0  0  0  0  0  0  0
    6.8862   -4.0389    0.0000 H   0  0  0  0  0  0  0  0  0  0  0  0
    7.7331   -3.8119    0.0000 H   0  0  0  0  0  0  0  0  0  0  0  0
    7.5062   -2.9650    0.0000 H   0  0  0  0  0  0  0  0  0  0  0  0
    7.7457   -3.1769    0.0000 H   0  0  0  0  0  0  0  0  0  0  0  0
    2.8660   -2.6219    0.0000 H   0  0  0  0  0  0  0  0  0  0  0  0
    4.2690   -0.1919    0.0000 H   0  0  0  0  0  0  0  0  0  0  0  0
    1.4631   -1.8119    0.0000 H   0  0  0  0  0  0  0  0  0  0  0  0
    2.8660    0.6181    0.0000 H   0  0  0  0  0  0  0  0  0  0  0  0
    1.4631   -0.1919    0.0000 H   0  0  0  0  0  0  0  0  0  0  0  0
    6.1956    2.5525    0.0000 H   0  0  0  0  0  0  0  0  0  0  0  0
    8.3451    0.7488    0.0000 H   0  0  0  0  0  0  0  0  0  0  0  0
    9.1104   -3.5853    0.0000 H   0  0  0  0  0  0  0  0  0  0  0  0
    9.9838   -3.6617    0.0000 H   0  0  0  0  0  0  0  0  0  0  0  0
   10.0603   -2.7882    0.0000 H   0  0  0  0  0  0  0  0  0  0  0  0
    9.8672   -1.6930    0.0000 H   0  0  0  0  0  0  0  0  0  0  0  0
    9.4966   -0.8984    0.0000 H   0  0  0  0  0  0  0  0  0  0  0  0
    8.7019   -1.2689    0.0000 H   0  0  0  0  0  0  0  0  0  0  0  0
    4.5680    1.9601    0.0000 H   0  0  0  0  0  0  0  0  0  0  0  0
    8.0443   -0.9569    0.0000 H   0  0  0  0  0  0  0  0  0  0  0  0
    8.2758    3.7140    0.0000 H   0  0  0  0  0  0  0  0  0  0  0  0
    7.4812    4.0845    0.0000 H   0  0  0  0  0  0  0  0  0  0  0  0
    7.1106    3.2899    0.0000 H   0  0  0  0  0  0  0  0  0  0  0  0
  1 13  2  0  0  0  0
  2 20  1  0  0  0  0
  2 56  1  0  0  0  0
  3 21  1  0  0  0  0
  3 57  1  0  0  0  0
  4 29  1  0  0  0  0
  4 30  1  0  0  0  0
  5  6  1  0  0  0  0
  5  7  1  0  0  0  0
  5 13  1  6  0  0  0
  5 31  1  0  0  0  0
  6  9  1  0  0  0  0
  6 10  1  6  0  0  0
  6 32  1  0  0  0  0
  7  8  1  0  0  0  0
  7 12  1  1  0  0  0
  7 33  1  0  0  0  0
  8 11  1  0  0  0  0
  8 34  1  0  0  0  0
  8 35  1  0  0  0  0
  9 11  2  0  0  0  0
  9 14  1  0  0  0  0
 10 15  1  0  0  0  0
 10 36  1  0  0  0  0
 10 37  1  0  0  0  0
 11 38  1  0  0  0  0
 12 17  2  0  0  0  0
 12 18  1  0  0  0  0
 13 16  1  0  0  0  0
 14 39  1  0  0  0  0
 14 40  1  0  0  0  0
 14 41  1  0  0  0  0
 15 19  2  0  0  0  0
 15 42  1  0  0  0  0
 16 20  2  0  0  0  0
 16 21  1  0  0  0  0
 17 22  1  0  0  0  0
 17 43  1  0  0  0  0
 18 23  2  0  0  0  0
 18 44  1  0  0  0  0
 19 25  1  0  0  0  0
 19 26  1  0  0  0  0
 20 27  1  0  0  0  0
 21 28  2  0  0  0  0
 22 24  2  0  0  0  0
 22 45  1  0  0  0  0
 23 24  1  0  0  0  0
 23 46  1  0  0  0  0
 24 47  1  0  0  0  0
 25 50  1  0  0  0  0
 25 51  1  0  0  0  0
 25 52  1  0  0  0  0
 26 53  1  0  0  0  0
 26 54  1  0  0  0  0
 26 55  1  0  0  0  0
 27 29  2  0  0  0  0
 27 48  1  0  0  0  0
 28 29  1  0  0  0  0
 28 49  1  0  0  0  0
 30 58  1  0  0  0  0
 30 59  1  0  0  0  0
 30 60  1  0  0  0  0
M  END
> <PUBCHEM_COMPOUND_CID>
6483648

> <PUBCHEM_COMPOUND_CANONICALIZED>
1

> <PUBCHEM_CACTVS_COMPLEXITY>
629

> <PUBCHEM_CACTVS_HBOND_ACCEPTOR>
4

> <PUBCHEM_CACTVS_HBOND_DONOR>
2

> <PUBCHEM_CACTVS_ROTATABLE_BOND>
6

> <PUBCHEM_CACTVS_SUBSKEYS>
AAADceB4OAAAAAAAAAAAAAAAAAAAAAAAAAAwYIAAAAAAAAABQAAAGgAACAAADQSAmAIyBoAABgCIAqBSAAACCAAkIAAIiAEGCMgMJzaGNRqAcWAl4BUIuQeI7PzOoAAACAAIAABAAAAQABAAAAAAAAAAAA==

> <PUBCHEM_IUPAC_OPENEYE_NAME>
(2,6-dihydroxy-4-methoxy-phenyl)-[(1R,2S,6R)-3-methyl-2-(3-methylbut-2-enyl)-6-phenyl-cyclohex-3-en-1-yl]methanone

> <PUBCHEM_IUPAC_CAS_NAME>
(2,6-dihydroxy-4-methoxyphenyl)-[(1R,2S,6R)-3-methyl-2-(3-methylbut-2-enyl)-6-phenyl-1-cyclohex-3-enyl]methanone

> <PUBCHEM_IUPAC_NAME_MARKUP>
(2,6-dihydroxy-4-methoxyphenyl)-[(1<I>R</I>,2<I>S</I>,6<I>R</I>)-3-methyl-2-(3-methylbut-2-enyl)-6-phenylcyclohex-3-en-1-yl]methanone

> <PUBCHEM_IUPAC_NAME>
(2,6-dihydroxy-4-methoxyphenyl)-[(1R,2S,6R)-3-methyl-2-(3-methylbut-2-enyl)-6-phenylcyclohex-3-en-1-yl]methanone

> <PUBCHEM_IUPAC_SYSTEMATIC_NAME>
[4-methoxy-2,6-bis(oxidanyl)phenyl]-[(1R,2S,6R)-3-methyl-2-(3-methylbut-2-enyl)-6-phenyl-cyclohex-3-en-1-yl]methanone

> <PUBCHEM_IUPAC_TRADITIONAL_NAME>
(2,6-dihydroxy-4-methoxy-phenyl)-[(1R,2S,6R)-3-methyl-2-(3-methylbut-2-enyl)-6-phenyl-cyclohex-3-en-1-yl]methanone

> <PUBCHEM_IUPAC_INCHI>
InChI=1S/C26H30O4/c1-16(2)10-12-20-17(3)11-13-21(18-8-6-5-7-9-18)24(20)26(29)25-22(27)14-19(30-4)15-23(25)28/h5-11,14-15,20-21,24,27-28H,12-13H2,1-4H3/t20-,21+,24-/m1/s1

> <PUBCHEM_IUPAC_INCHIKEY>
LYDZCXVWCFJAKQ-ZFGGDYGUSA-N

> <PUBCHEM_XLOGP3_AA>
6

> <PUBCHEM_EXACT_MASS>
406.21440943

> <PUBCHEM_MOLECULAR_FORMULA>
C26H30O4

> <PUBCHEM_MOLECULAR_WEIGHT>
406.5

> <PUBCHEM_OPENEYE_CAN_SMILES>
CC1=CCC(C(C1CC=C(C)C)C(=O)C2=C(C=C(C=C2O)OC)O)C3=CC=CC=C3

> <PUBCHEM_OPENEYE_ISO_SMILES>
CC1=CC[C@H]([C@@H]([C@@H]1CC=C(C)C)C(=O)C2=C(C=C(C=C2O)OC)O)C3=CC=CC=C3

> <PUBCHEM_CACTVS_TPSA>
66.8

> <PUBCHEM_MONOISOTOPIC_WEIGHT>
406.21440943

> <PUBCHEM_TOTAL_CHARGE>
0

> <PUBCHEM_HEAVY_ATOM_COUNT>
30

> <PUBCHEM_ATOM_DEF_STEREO_COUNT>
3

> <PUBCHEM_ATOM_UDEF_STEREO_COUNT>
0

> <PUBCHEM_BOND_DEF_STEREO_COUNT>
0

> <PUBCHEM_BOND_UDEF_STEREO_COUNT>
0

> <PUBCHEM_ISOTOPIC_ATOM_COUNT>
0

> <PUBCHEM_COMPONENT_COUNT>
1

> <PUBCHEM_CACTVS_TAUTO_COUNT>
-1

> <PUBCHEM_COORDINATE_TYPE>
1
5
255

> <PUBCHEM_BONDANNOTATIONS>
12  17  8
12  18  8
16  20  8
16  21  8
17  22  8
18  23  8
20  27  8
21  28  8
22  24  8
23  24  8
27  29  8
28  29  8
5  13  6
6  10  6
7  12  5

$$$$
