MCSJ45_0005
  -OEChem-07172407462D

 50 51  0     1  0  0  0  0  0999 V2000
    6.3301   -0.0600    0.0000 O   0  0  0  0  0  0  0  0  0  0  0  0
    7.1962   -0.5600    0.0000 O   0  0  0  0  0  0  0  0  0  0  0  0
    2.8660    0.9400    0.0000 O   0  0  0  0  0  0  0  0  0  0  0  0
   10.7078   -1.6533    0.0000 O   0  0  0  0  0  0  0  0  0  0  0  0
    2.0000    4.4400    0.0000 O   0  0  0  0  0  0  0  0  0  0  0  0
    3.7320    4.4400    0.0000 O   0  0  0  0  0  0  0  0  0  0  0  0
    6.3301   -2.0600    0.0000 N   0  0  0  0  0  0  0  0  0  0  0  0
    4.5981   -0.0600    0.0000 N   0  0  0  0  0  0  0  0  0  0  0  0
    3.7320    2.4400    0.0000 N   0  0  0  0  0  0  0  0  0  0  0  0
    5.4641   -1.5600    0.0000 C   0  0  1  0  0  0  0  0  0  0  0  0
    4.5981   -2.0600    0.0000 C   0  0  0  0  0  0  0  0  0  0  0  0
    4.5981   -3.0600    0.0000 C   0  0  0  0  0  0  0  0  0  0  0  0
    5.4641   -0.5600    0.0000 C   0  0  0  0  0  0  0  0  0  0  0  0
    3.7320   -3.5600    0.0000 C   0  0  0  0  0  0  0  0  0  0  0  0
    5.4641   -3.5600    0.0000 C   0  0  0  0  0  0  0  0  0  0  0  0
    4.5981    0.9400    0.0000 C   0  0  0  0  0  0  0  0  0  0  0  0
    7.1962   -1.5600    0.0000 C   0  0  0  0  0  0  0  0  0  0  0  0
    3.7320   -4.5600    0.0000 C   0  0  0  0  0  0  0  0  0  0  0  0
    5.4641   -4.5600    0.0000 C   0  0  0  0  0  0  0  0  0  0  0  0
    4.5981   -5.0600    0.0000 C   0  0  0  0  0  0  0  0  0  0  0  0
    3.7320    1.4400    0.0000 C   0  0  0  0  0  0  0  0  0  0  0  0
    8.0622   -2.0600    0.0000 C   0  0  0  0  0  0  0  0  0  0  0  0
    8.9282   -1.5600    0.0000 C   0  0  0  0  0  0  0  0  0  0  0  0
    2.8660    2.9400    0.0000 C   0  0  0  0  0  0  0  0  0  0  0  0
    9.7942   -2.0600    0.0000 C   0  0  0  0  0  0  0  0  0  0  0  0
    9.8988   -3.0545    0.0000 C   0  0  0  0  0  0  0  0  0  0  0  0
    2.8660    3.9400    0.0000 C   0  0  0  0  0  0  0  0  0  0  0  0
   10.8769   -3.2624    0.0000 C   0  0  0  0  0  0  0  0  0  0  0  0
   11.3769   -2.3964    0.0000 C   0  0  0  0  0  0  0  0  0  0  0  0
    5.4641   -2.1800    0.0000 H   0  0  0  0  0  0  0  0  0  0  0  0
    4.3860   -1.4774    0.0000 H   0  0  0  0  0  0  0  0  0  0  0  0
    3.9875   -2.1677    0.0000 H   0  0  0  0  0  0  0  0  0  0  0  0
    6.3301   -2.6800    0.0000 H   0  0  0  0  0  0  0  0  0  0  0  0
    4.0611   -0.3700    0.0000 H   0  0  0  0  0  0  0  0  0  0  0  0
    3.1951   -3.2500    0.0000 H   0  0  0  0  0  0  0  0  0  0  0  0
    6.0010   -3.2500    0.0000 H   0  0  0  0  0  0  0  0  0  0  0  0
    5.2087    0.8323    0.0000 H   0  0  0  0  0  0  0  0  0  0  0  0
    4.8101    1.5226    0.0000 H   0  0  0  0  0  0  0  0  0  0  0  0
    3.1951   -4.8700    0.0000 H   0  0  0  0  0  0  0  0  0  0  0  0
    6.0010   -4.8700    0.0000 H   0  0  0  0  0  0  0  0  0  0  0  0
    4.5981   -5.6800    0.0000 H   0  0  0  0  0  0  0  0  0  0  0  0
    8.0622   -2.6800    0.0000 H   0  0  0  0  0  0  0  0  0  0  0  0
    4.2690    2.7500    0.0000 H   0  0  0  0  0  0  0  0  0  0  0  0
    8.9282   -0.9400    0.0000 H   0  0  0  0  0  0  0  0  0  0  0  0
    2.2554    3.0477    0.0000 H   0  0  0  0  0  0  0  0  0  0  0  0
    2.6540    2.3574    0.0000 H   0  0  0  0  0  0  0  0  0  0  0  0
    9.4380   -3.4694    0.0000 H   0  0  0  0  0  0  0  0  0  0  0  0
   11.1291   -3.8288    0.0000 H   0  0  0  0  0  0  0  0  0  0  0  0
   11.9935   -2.3316    0.0000 H   0  0  0  0  0  0  0  0  0  0  0  0
    2.0000    5.0600    0.0000 H   0  0  0  0  0  0  0  0  0  0  0  0
  1 13  2  0  0  0  0
  2 17  2  0  0  0  0
  3 21  2  0  0  0  0
  4 25  1  0  0  0  0
  4 29  1  0  0  0  0
  5 27  1  0  0  0  0
  5 50  1  0  0  0  0
  6 27  2  0  0  0  0
 10  7  1  1  0  0  0
  7 17  1  0  0  0  0
  7 33  1  0  0  0  0
  8 13  1  0  0  0  0
  8 16  1  0  0  0  0
  8 34  1  0  0  0  0
  9 21  1  0  0  0  0
  9 24  1  0  0  0  0
  9 43  1  0  0  0  0
 10 11  1  0  0  0  0
 10 13  1  0  0  0  0
 10 30  1  0  0  0  0
 11 12  1  0  0  0  0
 11 31  1  0  0  0  0
 11 32  1  0  0  0  0
 12 14  2  0  0  0  0
 12 15  1  0  0  0  0
 14 18  1  0  0  0  0
 14 35  1  0  0  0  0
 15 19  2  0  0  0  0
 15 36  1  0  0  0  0
 16 21  1  0  0  0  0
 16 37  1  0  0  0  0
 16 38  1  0  0  0  0
 17 22  1  0  0  0  0
 18 20  2  0  0  0  0
 18 39  1  0  0  0  0
 19 20  1  0  0  0  0
 19 40  1  0  0  0  0
 20 41  1  0  0  0  0
 22 23  2  3  0  0  0
 22 42  1  0  0  0  0
 23 25  1  0  0  0  0
 23 44  1  0  0  0  0
 24 27  1  0  0  0  0
 24 45  1  0  0  0  0
 24 46  1  0  0  0  0
 25 26  2  0  0  0  0
 26 28  1  0  0  0  0
 26 47  1  0  0  0  0
 28 29  2  0  0  0  0
 28 48  1  0  0  0  0
 29 49  1  0  0  0  0
M  END
> <PUBCHEM_COMPOUND_CID>
121905

> <PUBCHEM_COMPOUND_CANONICALIZED>
1

> <PUBCHEM_CACTVS_COMPLEXITY>
615

> <PUBCHEM_CACTVS_HBOND_ACCEPTOR>
6

> <PUBCHEM_CACTVS_HBOND_DONOR>
4

> <PUBCHEM_CACTVS_ROTATABLE_BOND>
10

> <PUBCHEM_CACTVS_SUBSKEYS>
AAADceB7OAAAAAAAAAAAAAAAAAAAASAAAAAwAAAAAAAAAAABwAAAHgAQCAAADCzhmAYwDILABkCIAqnSmACCCAAkIAAIiIGOCMgOZjKEtTuWOSCk1hGYqYeYiICOAAAAAAAAAAAAAAAAAAAAAAAAAAAAAA==

> <PUBCHEM_IUPAC_OPENEYE_NAME>
2-[[2-[[(2S)-2-[3-(2-furyl)prop-2-enoylamino]-3-phenyl-propanoyl]amino]acetyl]amino]acetic acid

> <PUBCHEM_IUPAC_CAS_NAME>
2-[[2-[[(2S)-2-[[3-(2-furanyl)-1-oxoprop-2-enyl]amino]-1-oxo-3-phenylpropyl]amino]-1-oxoethyl]amino]acetic acid

> <PUBCHEM_IUPAC_NAME_MARKUP>
2-[[2-[[(2<I>S</I>)-2-[3-(furan-2-yl)prop-2-enoylamino]-3-phenylpropanoyl]amino]acetyl]amino]acetic acid

> <PUBCHEM_IUPAC_NAME>
2-[[2-[[(2S)-2-[3-(furan-2-yl)prop-2-enoylamino]-3-phenylpropanoyl]amino]acetyl]amino]acetic acid

> <PUBCHEM_IUPAC_SYSTEMATIC_NAME>
2-[2-[[(2S)-2-[3-(furan-2-yl)prop-2-enoylamino]-3-phenyl-propanoyl]amino]ethanoylamino]ethanoic acid

> <PUBCHEM_IUPAC_TRADITIONAL_NAME>
2-[[2-[[(2S)-2-[[3-(2-furyl)acryloyl]amino]-3-phenyl-propanoyl]amino]acetyl]amino]acetic acid

> <PUBCHEM_IUPAC_INCHI>
InChI=1S/C20H21N3O6/c24-17(9-8-15-7-4-10-29-15)23-16(11-14-5-2-1-3-6-14)20(28)22-12-18(25)21-13-19(26)27/h1-10,16H,11-13H2,(H,21,25)(H,22,28)(H,23,24)(H,26,27)/t16-/m0/s1

> <PUBCHEM_IUPAC_INCHIKEY>
ZDLZKMDMBBMJLI-INIZCTEOSA-N

> <PUBCHEM_XLOGP3_AA>
1

> <PUBCHEM_EXACT_MASS>
399.14303540

> <PUBCHEM_MOLECULAR_FORMULA>
C20H21N3O6

> <PUBCHEM_MOLECULAR_WEIGHT>
399.4

> <PUBCHEM_OPENEYE_CAN_SMILES>
C1=CC=C(C=C1)CC(C(=O)NCC(=O)NCC(=O)O)NC(=O)C=CC2=CC=CO2

> <PUBCHEM_OPENEYE_ISO_SMILES>
C1=CC=C(C=C1)C[C@@H](C(=O)NCC(=O)NCC(=O)O)NC(=O)C=CC2=CC=CO2

> <PUBCHEM_CACTVS_TPSA>
138

> <PUBCHEM_MONOISOTOPIC_WEIGHT>
399.14303540

> <PUBCHEM_TOTAL_CHARGE>
0

> <PUBCHEM_HEAVY_ATOM_COUNT>
29

> <PUBCHEM_ATOM_DEF_STEREO_COUNT>
1

> <PUBCHEM_ATOM_UDEF_STEREO_COUNT>
0

> <PUBCHEM_BOND_DEF_STEREO_COUNT>
0

> <PUBCHEM_BOND_UDEF_STEREO_COUNT>
1

> <PUBCHEM_ISOTOPIC_ATOM_COUNT>
0

> <PUBCHEM_COMPONENT_COUNT>
1

> <PUBCHEM_CACTVS_TAUTO_COUNT>
-1

> <PUBCHEM_COORDINATE_TYPE>
1
5
255

> <PUBCHEM_BONDANNOTATIONS>
12  14  8
12  15  8
14  18  8
15  19  8
18  20  8
19  20  8
22  23  1
25  26  8
26  28  8
28  29  8
4  25  8
4  29  8
10  7  5

$$$$
