MCSJ51_0025
  -OEChem-07172407072D

 65 68  0     1  0  0  0  0  0999 V2000
    7.0360   -0.2699    0.0000 O   0  0  0  0  0  0  0  0  0  0  0  0
   10.5560   -0.2699    0.0000 O   0  0  0  0  0  0  0  0  0  0  0  0
    2.6200    2.8285    0.0000 O   0  0  0  0  0  0  0  0  0  0  0  0
    8.7960    2.7648    0.0000 O   0  0  0  0  0  0  0  0  0  0  0  0
   10.5444    2.7994    0.0000 O   0  0  0  0  0  0  0  0  0  0  0  0
   13.1825   -2.7627    0.0000 O   0  0  0  0  0  0  0  0  0  0  0  0
   14.9184   -1.7694    0.0000 O   0  0  0  0  0  0  0  0  0  0  0  0
    6.1300    0.2440    0.0000 C   0  0  3  0  0  0  0  0  0  0  0  0
    6.1300    1.2856    0.0000 C   0  0  0  0  0  0  0  0  0  0  0  0
    5.1300    0.2401    0.0000 C   0  0  0  0  0  0  0  0  0  0  0  0
    7.0360    1.7994    0.0000 C   0  0  0  0  0  0  0  0  0  0  0  0
    4.6267    1.1042    0.0000 C   0  0  0  0  0  0  0  0  0  0  0  0
    7.9300    1.2648    0.0000 C   0  0  0  0  0  0  0  0  0  0  0  0
    5.6333   -0.6240    0.0000 C   0  0  0  0  0  0  0  0  0  0  0  0
    7.9300    0.2648    0.0000 C   0  0  0  0  0  0  0  0  0  0  0  0
    3.6267    1.1003    0.0000 C   0  0  0  0  0  0  0  0  0  0  0  0
    3.1233    1.9644    0.0000 C   0  0  0  0  0  0  0  0  0  0  0  0
    8.7960    1.7648    0.0000 C   0  0  0  0  0  0  0  0  0  0  0  0
    8.7960   -0.2352    0.0000 C   0  0  0  0  0  0  0  0  0  0  0  0
    9.6620    1.2648    0.0000 C   0  0  0  0  0  0  0  0  0  0  0  0
    9.6620    0.2648    0.0000 C   0  0  0  0  0  0  0  0  0  0  0  0
   11.4621    0.2440    0.0000 C   0  0  1  0  0  0  0  0  0  0  0  0
   11.4621    1.2856    0.0000 C   0  0  0  0  0  0  0  0  0  0  0  0
    2.2592    1.4611    0.0000 C   0  0  0  0  0  0  0  0  0  0  0  0
    3.9874    2.4678    0.0000 C   0  0  0  0  0  0  0  0  0  0  0  0
   10.5560    1.7994    0.0000 C   0  0  0  0  0  0  0  0  0  0  0  0
   12.3261   -0.2594    0.0000 C   0  0  0  0  0  0  0  0  0  0  0  0
   12.3223   -1.2594    0.0000 C   0  0  0  0  0  0  0  0  0  0  0  0
   13.1941    0.2373    0.0000 C   0  0  0  0  0  0  0  0  0  0  0  0
   13.1864   -1.7627    0.0000 C   0  0  0  0  0  0  0  0  0  0  0  0
   14.0582   -0.2661    0.0000 C   0  0  0  0  0  0  0  0  0  0  0  0
   14.0543   -1.2660    0.0000 C   0  0  0  0  0  0  0  0  0  0  0  0
   15.7864   -1.2727    0.0000 C   0  0  0  0  0  0  0  0  0  0  0  0
    5.9209    1.8693    0.0000 H   0  0  0  0  0  0  0  0  0  0  0  0
    5.5191    1.1795    0.0000 H   0  0  0  0  0  0  0  0  0  0  0  0
    4.5482    0.0258    0.0000 H   0  0  0  0  0  0  0  0  0  0  0  0
    5.2400   -0.3701    0.0000 H   0  0  0  0  0  0  0  0  0  0  0  0
    7.4406    2.2692    0.0000 H   0  0  0  0  0  0  0  0  0  0  0  0
    6.6424    2.2784    0.0000 H   0  0  0  0  0  0  0  0  0  0  0  0
    5.2084    1.3185    0.0000 H   0  0  0  0  0  0  0  0  0  0  0  0
    4.5166    1.7144    0.0000 H   0  0  0  0  0  0  0  0  0  0  0  0
    5.0952   -0.3161    0.0000 H   0  0  0  0  0  0  0  0  0  0  0  0
    5.3254   -1.1621    0.0000 H   0  0  0  0  0  0  0  0  0  0  0  0
    6.1714   -0.9319    0.0000 H   0  0  0  0  0  0  0  0  0  0  0  0
    3.0449    0.8860    0.0000 H   0  0  0  0  0  0  0  0  0  0  0  0
    3.7367    0.4902    0.0000 H   0  0  0  0  0  0  0  0  0  0  0  0
    8.7960   -0.8552    0.0000 H   0  0  0  0  0  0  0  0  0  0  0  0
   11.4585   -0.3760    0.0000 H   0  0  0  0  0  0  0  0  0  0  0  0
   12.0729    1.1795    0.0000 H   0  0  0  0  0  0  0  0  0  0  0  0
   11.6711    1.8693    0.0000 H   0  0  0  0  0  0  0  0  0  0  0  0
    1.9472    1.9968    0.0000 H   0  0  0  0  0  0  0  0  0  0  0  0
    1.7235    1.1490    0.0000 H   0  0  0  0  0  0  0  0  0  0  0  0
    2.5713    0.9254    0.0000 H   0  0  0  0  0  0  0  0  0  0  0  0
    4.2995    1.9320    0.0000 H   0  0  0  0  0  0  0  0  0  0  0  0
    4.5232    2.7798    0.0000 H   0  0  0  0  0  0  0  0  0  0  0  0
    3.6754    3.0035    0.0000 H   0  0  0  0  0  0  0  0  0  0  0  0
    2.0000    2.8261    0.0000 H   0  0  0  0  0  0  0  0  0  0  0  0
    8.2591    3.0748    0.0000 H   0  0  0  0  0  0  0  0  0  0  0  0
   11.7842   -1.5673    0.0000 H   0  0  0  0  0  0  0  0  0  0  0  0
   13.1965    0.8573    0.0000 H   0  0  0  0  0  0  0  0  0  0  0  0
   14.5963    0.0419    0.0000 H   0  0  0  0  0  0  0  0  0  0  0  0
   13.7183   -3.0748    0.0000 H   0  0  0  0  0  0  0  0  0  0  0  0
   16.0943   -1.8108    0.0000 H   0  0  0  0  0  0  0  0  0  0  0  0
   16.3245   -0.9648    0.0000 H   0  0  0  0  0  0  0  0  0  0  0  0
   15.4784   -0.7346    0.0000 H   0  0  0  0  0  0  0  0  0  0  0  0
  1  8  1  0  0  0  0
  1 15  1  0  0  0  0
  2 21  1  0  0  0  0
  2 22  1  0  0  0  0
  3 17  1  0  0  0  0
  3 57  1  0  0  0  0
  4 18  1  0  0  0  0
  4 58  1  0  0  0  0
  5 26  2  0  0  0  0
  6 30  1  0  0  0  0
  6 62  1  0  0  0  0
  7 32  1  0  0  0  0
  7 33  1  0  0  0  0
  8  9  1  0  0  0  0
  8 10  1  0  0  0  0
  8 14  1  0  0  0  0
  9 11  1  0  0  0  0
  9 34  1  0  0  0  0
  9 35  1  0  0  0  0
 10 12  1  0  0  0  0
 10 36  1  0  0  0  0
 10 37  1  0  0  0  0
 11 13  1  0  0  0  0
 11 38  1  0  0  0  0
 11 39  1  0  0  0  0
 12 16  1  0  0  0  0
 12 40  1  0  0  0  0
 12 41  1  0  0  0  0
 13 15  1  0  0  0  0
 13 18  2  0  0  0  0
 14 42  1  0  0  0  0
 14 43  1  0  0  0  0
 14 44  1  0  0  0  0
 15 19  2  0  0  0  0
 16 17  1  0  0  0  0
 16 45  1  0  0  0  0
 16 46  1  0  0  0  0
 17 24  1  0  0  0  0
 17 25  1  0  0  0  0
 18 20  1  0  0  0  0
 19 21  1  0  0  0  0
 19 47  1  0  0  0  0
 20 21  2  0  0  0  0
 20 26  1  0  0  0  0
 22 23  1  0  0  0  0
 22 27  1  1  0  0  0
 22 48  1  0  0  0  0
 23 26  1  0  0  0  0
 23 49  1  0  0  0  0
 23 50  1  0  0  0  0
 24 51  1  0  0  0  0
 24 52  1  0  0  0  0
 24 53  1  0  0  0  0
 25 54  1  0  0  0  0
 25 55  1  0  0  0  0
 25 56  1  0  0  0  0
 27 28  2  0  0  0  0
 27 29  1  0  0  0  0
 28 30  1  0  0  0  0
 28 59  1  0  0  0  0
 29 31  2  0  0  0  0
 29 60  1  0  0  0  0
 30 32  2  0  0  0  0
 31 32  1  0  0  0  0
 31 61  1  0  0  0  0
 33 63  1  0  0  0  0
 33 64  1  0  0  0  0
 33 65  1  0  0  0  0
M  END
> <PUBCHEM_COMPOUND_CID>
71659628

> <PUBCHEM_COMPOUND_CANONICALIZED>
1

> <PUBCHEM_CACTVS_COMPLEXITY>
696

> <PUBCHEM_CACTVS_HBOND_ACCEPTOR>
7

> <PUBCHEM_CACTVS_HBOND_DONOR>
3

> <PUBCHEM_CACTVS_ROTATABLE_BOND>
6

> <PUBCHEM_CACTVS_SUBSKEYS>
AAADcfB4OAAAAAAAAAAAAAAAAAAAAAAAAAA0aIEAAAAAAACRQAAAGgAACAAADFSgmAIyBoAABgCIAqBSAAACCAAkIAAIiAEGiMgNJzaGNRqCeWOl4BULuQfI7PzOIAADCAAIQABAAAYQABCAAAAAAAAAAA==

> <PUBCHEM_IUPAC_OPENEYE_NAME>
(8S)-5-hydroxy-8-(3-hydroxy-4-methoxy-phenyl)-2-(4-hydroxy-4-methyl-pentyl)-2-methyl-3,4,7,8-tetrahydropyrano[3,2-g]chromen-6-one

> <PUBCHEM_IUPAC_CAS_NAME>
(8S)-5-hydroxy-8-(3-hydroxy-4-methoxyphenyl)-2-(4-hydroxy-4-methylpentyl)-2-methyl-3,4,7,8-tetrahydropyrano[3,2-g][1]benzopyran-6-one

> <PUBCHEM_IUPAC_NAME_MARKUP>
(8<I>S</I>)-5-hydroxy-8-(3-hydroxy-4-methoxyphenyl)-2-(4-hydroxy-4-methylpentyl)-2-methyl-3,4,7,8-tetrahydropyrano[3,2-g]chromen-6-one

> <PUBCHEM_IUPAC_NAME>
(8S)-5-hydroxy-8-(3-hydroxy-4-methoxyphenyl)-2-(4-hydroxy-4-methylpentyl)-2-methyl-3,4,7,8-tetrahydropyrano[3,2-g]chromen-6-one

> <PUBCHEM_IUPAC_SYSTEMATIC_NAME>
(8S)-8-(4-methoxy-3-oxidanyl-phenyl)-2-methyl-2-(4-methyl-4-oxidanyl-pentyl)-5-oxidanyl-3,4,7,8-tetrahydropyrano[3,2-g]chromen-6-one

> <PUBCHEM_IUPAC_TRADITIONAL_NAME>
(8S)-5-hydroxy-8-(3-hydroxy-4-methoxy-phenyl)-2-(4-hydroxy-4-methyl-pentyl)-2-methyl-3,4,7,8-tetrahydropyrano[3,2-g]chromen-6-one

> <PUBCHEM_IUPAC_INCHI>
InChI=1S/C26H32O7/c1-25(2,30)9-5-10-26(3)11-8-16-21(33-26)14-22-23(24(16)29)18(28)13-20(32-22)15-6-7-19(31-4)17(27)12-15/h6-7,12,14,20,27,29-30H,5,8-11,13H2,1-4H3/t20-,26?/m0/s1

> <PUBCHEM_IUPAC_INCHIKEY>
JKVINBILQDMNEH-DQUNLGLBSA-N

> <PUBCHEM_XLOGP3_AA>
4.3

> <PUBCHEM_EXACT_MASS>
456.21480336

> <PUBCHEM_MOLECULAR_FORMULA>
C26H32O7

> <PUBCHEM_MOLECULAR_WEIGHT>
456.5

> <PUBCHEM_OPENEYE_CAN_SMILES>
CC1(CCC2=C(C3=C(C=C2O1)OC(CC3=O)C4=CC(=C(C=C4)OC)O)O)CCCC(C)(C)O

> <PUBCHEM_OPENEYE_ISO_SMILES>
CC1(CCC2=C(C3=C(C=C2O1)O[C@@H](CC3=O)C4=CC(=C(C=C4)OC)O)O)CCCC(C)(C)O

> <PUBCHEM_CACTVS_TPSA>
105

> <PUBCHEM_MONOISOTOPIC_WEIGHT>
456.21480336

> <PUBCHEM_TOTAL_CHARGE>
0

> <PUBCHEM_HEAVY_ATOM_COUNT>
33

> <PUBCHEM_ATOM_DEF_STEREO_COUNT>
1

> <PUBCHEM_ATOM_UDEF_STEREO_COUNT>
1

> <PUBCHEM_BOND_DEF_STEREO_COUNT>
0

> <PUBCHEM_BOND_UDEF_STEREO_COUNT>
0

> <PUBCHEM_ISOTOPIC_ATOM_COUNT>
0

> <PUBCHEM_COMPONENT_COUNT>
1

> <PUBCHEM_CACTVS_TAUTO_COUNT>
-1

> <PUBCHEM_COORDINATE_TYPE>
1
5
255

> <PUBCHEM_BONDANNOTATIONS>
13  15  8
13  18  8
15  19  8
18  20  8
19  21  8
20  21  8
22  27  5
27  28  8
27  29  8
28  30  8
29  31  8
30  32  8
31  32  8
8  14  3

$$$$
