MCSJ46_0004
  -OEChem-04162408212D

 61 64  0     0  0  0  0  0  0999 V2000
   11.3239   -4.0665    0.0000 O   0  0  0  0  0  0  0  0  0  0  0  0
    7.8319   -4.0319    0.0000 O   0  0  0  0  0  0  0  0  0  0  0  0
    6.2492   -1.6954    0.0000 O   0  0  0  0  0  0  0  0  0  0  0  0
    8.4705   -0.3682    0.0000 O   0  0  0  0  0  0  0  0  0  0  0  0
    6.7105   -3.4167    0.0000 O   0  0  0  0  0  0  0  0  0  0  0  0
    2.3644    0.5022    0.0000 O   0  0  0  0  0  0  0  0  0  0  0  0
   12.2300   -3.5527    0.0000 C   0  0  0  0  0  0  0  0  0  0  0  0
   12.2300   -2.5110    0.0000 C   0  0  0  0  0  0  0  0  0  0  0  0
   11.3239   -1.9972    0.0000 C   0  0  0  0  0  0  0  0  0  0  0  0
   10.4300   -2.5318    0.0000 C   0  0  0  0  0  0  0  0  0  0  0  0
   10.4300   -3.5318    0.0000 C   0  0  0  0  0  0  0  0  0  0  0  0
   13.2300   -3.5565    0.0000 C   0  0  0  0  0  0  0  0  0  0  0  0
   12.7267   -4.4206    0.0000 C   0  0  0  0  0  0  0  0  0  0  0  0
    9.5640   -2.0318    0.0000 C   0  0  0  0  0  0  0  0  0  0  0  0
    9.5640   -4.0319    0.0000 C   0  0  0  0  0  0  0  0  0  0  0  0
    8.6980   -2.5318    0.0000 C   0  0  0  0  0  0  0  0  0  0  0  0
    8.6980   -3.5318    0.0000 C   0  0  0  0  0  0  0  0  0  0  0  0
    7.8319   -2.0318    0.0000 C   0  0  0  0  0  0  0  0  0  0  0  0
    7.7274   -1.0373    0.0000 C   0  0  0  0  0  0  0  0  0  0  0  0
    6.9184   -2.4386    0.0000 C   0  0  0  0  0  0  0  0  0  0  0  0
    6.7492   -0.8294    0.0000 C   0  0  0  0  0  0  0  0  0  0  0  0
    6.3425    0.0841    0.0000 C   0  0  0  0  0  0  0  0  0  0  0  0
    5.3480    0.1887    0.0000 C   0  0  0  0  0  0  0  0  0  0  0  0
    3.9467    1.2067    0.0000 C   0  0  0  0  0  0  0  0  0  0  0  0
    4.9413    1.1022    0.0000 C   0  0  0  0  0  0  0  0  0  0  0  0
    3.5400    2.1203    0.0000 C   0  0  0  0  0  0  0  0  0  0  0  0
    4.7602   -0.6204    0.0000 C   0  0  0  0  0  0  0  0  0  0  0  0
    3.3590    0.3977    0.0000 C   0  0  0  0  0  0  0  0  0  0  0  0
    3.7657   -0.5158    0.0000 C   0  0  0  0  0  0  0  0  0  0  0  0
    4.1278    2.9293    0.0000 C   0  0  0  0  0  0  0  0  0  0  0  0
    3.7210    3.8428    0.0000 C   0  0  0  0  0  0  0  0  0  0  0  0
    4.3088    4.6518    0.0000 C   0  0  0  0  0  0  0  0  0  0  0  0
    2.7265    3.9474    0.0000 C   0  0  0  0  0  0  0  0  0  0  0  0
   12.8409   -2.6171    0.0000 H   0  0  0  0  0  0  0  0  0  0  0  0
   12.4391   -1.9274    0.0000 H   0  0  0  0  0  0  0  0  0  0  0  0
   11.7176   -1.5182    0.0000 H   0  0  0  0  0  0  0  0  0  0  0  0
   10.9193   -1.5274    0.0000 H   0  0  0  0  0  0  0  0  0  0  0  0
   13.2276   -4.1765    0.0000 H   0  0  0  0  0  0  0  0  0  0  0  0
   13.8500   -3.5589    0.0000 H   0  0  0  0  0  0  0  0  0  0  0  0
   13.2324   -2.9365    0.0000 H   0  0  0  0  0  0  0  0  0  0  0  0
   12.1885   -4.7285    0.0000 H   0  0  0  0  0  0  0  0  0  0  0  0
   13.0346   -4.9587    0.0000 H   0  0  0  0  0  0  0  0  0  0  0  0
   13.2648   -4.1127    0.0000 H   0  0  0  0  0  0  0  0  0  0  0  0
    9.5640   -1.4118    0.0000 H   0  0  0  0  0  0  0  0  0  0  0  0
    9.5640   -4.6518    0.0000 H   0  0  0  0  0  0  0  0  0  0  0  0
    7.8319   -4.6518    0.0000 H   0  0  0  0  0  0  0  0  0  0  0  0
    6.7069    0.5857    0.0000 H   0  0  0  0  0  0  0  0  0  0  0  0
    5.3057    1.6038    0.0000 H   0  0  0  0  0  0  0  0  0  0  0  0
    8.3416    0.2383    0.0000 H   0  0  0  0  0  0  0  0  0  0  0  0
    3.1093    2.5663    0.0000 H   0  0  0  0  0  0  0  0  0  0  0  0
    3.0260    1.7736    0.0000 H   0  0  0  0  0  0  0  0  0  0  0  0
    5.0124   -1.1868    0.0000 H   0  0  0  0  0  0  0  0  0  0  0  0
    3.4013   -1.0174    0.0000 H   0  0  0  0  0  0  0  0  0  0  0  0
    4.7444    2.8645    0.0000 H   0  0  0  0  0  0  0  0  0  0  0  0
    4.8104    4.2874    0.0000 H   0  0  0  0  0  0  0  0  0  0  0  0
    4.6733    5.1534    0.0000 H   0  0  0  0  0  0  0  0  0  0  0  0
    3.8072    5.0163    0.0000 H   0  0  0  0  0  0  0  0  0  0  0  0
    2.7913    4.5640    0.0000 H   0  0  0  0  0  0  0  0  0  0  0  0
    2.1099    4.0122    0.0000 H   0  0  0  0  0  0  0  0  0  0  0  0
    2.6617    3.3308    0.0000 H   0  0  0  0  0  0  0  0  0  0  0  0
    2.0000    0.0006    0.0000 H   0  0  0  0  0  0  0  0  0  0  0  0
  1  7  1  0  0  0  0
  1 11  1  0  0  0  0
  2 17  1  0  0  0  0
  2 46  1  0  0  0  0
  3 20  1  0  0  0  0
  3 21  1  0  0  0  0
  4 19  1  0  0  0  0
  4 49  1  0  0  0  0
  5 20  2  0  0  0  0
  6 28  1  0  0  0  0
  6 61  1  0  0  0  0
  7  8  1  0  0  0  0
  7 12  1  0  0  0  0
  7 13  1  0  0  0  0
  8  9  1  0  0  0  0
  8 34  1  0  0  0  0
  8 35  1  0  0  0  0
  9 10  1  0  0  0  0
  9 36  1  0  0  0  0
  9 37  1  0  0  0  0
 10 11  1  0  0  0  0
 10 14  2  0  0  0  0
 11 15  2  0  0  0  0
 12 38  1  0  0  0  0
 12 39  1  0  0  0  0
 12 40  1  0  0  0  0
 13 41  1  0  0  0  0
 13 42  1  0  0  0  0
 13 43  1  0  0  0  0
 14 16  1  0  0  0  0
 14 44  1  0  0  0  0
 15 17  1  0  0  0  0
 15 45  1  0  0  0  0
 16 17  2  0  0  0  0
 16 18  1  0  0  0  0
 18 19  2  0  0  0  0
 18 20  1  0  0  0  0
 19 21  1  0  0  0  0
 21 22  2  0  0  0  0
 22 23  1  0  0  0  0
 22 47  1  0  0  0  0
 23 25  2  0  0  0  0
 23 27  1  0  0  0  0
 24 25  1  0  0  0  0
 24 26  1  0  0  0  0
 24 28  2  0  0  0  0
 25 48  1  0  0  0  0
 26 30  1  0  0  0  0
 26 50  1  0  0  0  0
 26 51  1  0  0  0  0
 27 29  2  0  0  0  0
 27 52  1  0  0  0  0
 28 29  1  0  0  0  0
 29 53  1  0  0  0  0
 30 31  2  0  0  0  0
 30 54  1  0  0  0  0
 31 32  1  0  0  0  0
 31 33  1  0  0  0  0
 32 55  1  0  0  0  0
 32 56  1  0  0  0  0
 32 57  1  0  0  0  0
 33 58  1  0  0  0  0
 33 59  1  0  0  0  0
 33 60  1  0  0  0  0
M  END
> <PUBCHEM_COMPOUND_CID>
54678424

> <PUBCHEM_COMPOUND_CANONICALIZED>
1

> <PUBCHEM_CACTVS_COMPLEXITY>
849

> <PUBCHEM_CACTVS_HBOND_ACCEPTOR>
6

> <PUBCHEM_CACTVS_HBOND_DONOR>
3

> <PUBCHEM_CACTVS_ROTATABLE_BOND>
4

> <PUBCHEM_CACTVS_SUBSKEYS>
AAADceB4OAAAAAAAAAAAAAAAAAAAAQAAAAA0YIAAAAAAAACRQAAAGgAACAAADESAmAAyDoAABgCIAiDSCAACCAAgIAAIiAEGCMgNJzKGNRqCeCClwBULuQfK6PyOIAACCAAIAABAAAQQABAAAAAAAAAAAA==

> <PUBCHEM_IUPAC_OPENEYE_NAME>
(5Z)-4-hydroxy-3-(7-hydroxy-2,2-dimethyl-chroman-6-yl)-5-[[4-hydroxy-3-(3-methylbut-2-enyl)phenyl]methylene]furan-2-one

> <PUBCHEM_IUPAC_CAS_NAME>
(5Z)-4-hydroxy-3-(7-hydroxy-2,2-dimethyl-3,4-dihydro-2H-1-benzopyran-6-yl)-5-[[4-hydroxy-3-(3-methylbut-2-enyl)phenyl]methylidene]-2-furanone

> <PUBCHEM_IUPAC_NAME_MARKUP>
(5<I>Z</I>)-4-hydroxy-3-(7-hydroxy-2,2-dimethyl-3,4-dihydrochromen-6-yl)-5-[[4-hydroxy-3-(3-methylbut-2-enyl)phenyl]methylidene]furan-2-one

> <PUBCHEM_IUPAC_NAME>
(5Z)-4-hydroxy-3-(7-hydroxy-2,2-dimethyl-3,4-dihydrochromen-6-yl)-5-[[4-hydroxy-3-(3-methylbut-2-enyl)phenyl]methylidene]furan-2-one

> <PUBCHEM_IUPAC_SYSTEMATIC_NAME>
(5Z)-3-(2,2-dimethyl-7-oxidanyl-3,4-dihydrochromen-6-yl)-5-[[3-(3-methylbut-2-enyl)-4-oxidanyl-phenyl]methylidene]-4-oxidanyl-furan-2-one

> <PUBCHEM_IUPAC_TRADITIONAL_NAME>
(5Z)-4-hydroxy-3-(7-hydroxy-2,2-dimethyl-chroman-6-yl)-5-[4-hydroxy-3-(3-methylbut-2-enyl)benzylidene]furan-2-one

> <PUBCHEM_IUPAC_INCHI>
InChI=1S/C27H28O6/c1-15(2)5-7-17-11-16(6-8-20(17)28)12-23-25(30)24(26(31)32-23)19-13-18-9-10-27(3,4)33-22(18)14-21(19)29/h5-6,8,11-14,28-30H,7,9-10H2,1-4H3/b23-12-

> <PUBCHEM_IUPAC_INCHIKEY>
WYDYFAZFMGEORI-FMCGGJTJSA-N

> <PUBCHEM_XLOGP3_AA>
5.5

> <PUBCHEM_EXACT_MASS>
448.18858861

> <PUBCHEM_MOLECULAR_FORMULA>
C27H28O6

> <PUBCHEM_MOLECULAR_WEIGHT>
448.5

> <PUBCHEM_OPENEYE_CAN_SMILES>
CC(=CCC1=C(C=CC(=C1)C=C2C(=C(C(=O)O2)C3=C(C=C4C(=C3)CCC(O4)(C)C)O)O)O)C

> <PUBCHEM_OPENEYE_ISO_SMILES>
CC(=CCC1=C(C=CC(=C1)/C=C\2/C(=C(C(=O)O2)C3=C(C=C4C(=C3)CCC(O4)(C)C)O)O)O)C

> <PUBCHEM_CACTVS_TPSA>
96.2

> <PUBCHEM_MONOISOTOPIC_WEIGHT>
448.18858861

> <PUBCHEM_TOTAL_CHARGE>
0

> <PUBCHEM_HEAVY_ATOM_COUNT>
33

> <PUBCHEM_ATOM_DEF_STEREO_COUNT>
0

> <PUBCHEM_ATOM_UDEF_STEREO_COUNT>
0

> <PUBCHEM_BOND_DEF_STEREO_COUNT>
1

> <PUBCHEM_BOND_UDEF_STEREO_COUNT>
0

> <PUBCHEM_ISOTOPIC_ATOM_COUNT>
0

> <PUBCHEM_COMPONENT_COUNT>
1

> <PUBCHEM_CACTVS_TAUTO_COUNT>
-1

> <PUBCHEM_COORDINATE_TYPE>
1
5
255

> <PUBCHEM_BONDANNOTATIONS>
10  11  8
10  14  8
11  15  8
14  16  8
15  17  8
16  17  8
23  25  8
23  27  8
24  25  8
24  28  8
27  29  8
28  29  8

$$$$
