MCSJ49_0013
  -OEChem-07172407472D

 53 54  0     1  0  0  0  0  0999 V2000
    3.5836   -1.9597    0.0000 O   0  0  0  0  0  0  0  0  0  0  0  0
    5.3958    0.8450    0.0000 O   0  0  0  0  0  0  0  0  0  0  0  0
    2.0000   -1.1550    0.0000 O   0  0  0  0  0  0  0  0  0  0  0  0
    4.5298   -4.6550    0.0000 O   0  0  0  0  0  0  0  0  0  0  0  0
    7.1279    0.8450    0.0000 O   0  0  0  0  0  0  0  0  0  0  0  0
    7.9939    2.3450    0.0000 O   0  0  0  0  0  0  0  0  0  0  0  0
    7.9939    4.3450    0.0000 O   0  0  0  0  0  0  0  0  0  0  0  0
    4.5298   -0.6550    0.0000 C   0  0  2  0  0  0  0  0  0  0  0  0
    5.3958   -0.1550    0.0000 C   0  0  2  0  0  0  0  0  0  0  0  0
    4.5298   -1.6550    0.0000 C   0  0  1  0  0  0  0  0  0  0  0  0
    6.2619   -0.6550    0.0000 C   0  0  0  0  0  0  0  0  0  0  0  0
    3.5836   -0.3503    0.0000 C   0  0  0  0  0  0  0  0  0  0  0  0
    5.3958   -2.1550    0.0000 C   0  0  0  0  0  0  0  0  0  0  0  0
    6.2619   -1.6550    0.0000 C   0  0  0  0  0  0  0  0  0  0  0  0
    3.0000   -1.1550    0.0000 C   0  0  0  0  0  0  0  0  0  0  0  0
    5.3958   -3.1550    0.0000 C   0  0  0  0  0  0  0  0  0  0  0  0
    6.2619   -3.6550    0.0000 C   0  0  0  0  0  0  0  0  0  0  0  0
    7.1279   -3.1550    0.0000 C   0  0  0  0  0  0  0  0  0  0  0  0
    7.1279   -2.1550    0.0000 C   0  0  0  0  0  0  0  0  0  0  0  0
    3.2729    0.6003    0.0000 C   0  0  0  0  0  0  0  0  0  0  0  0
    4.8053   -2.1851    0.0000 C   0  0  0  0  0  0  0  0  0  0  0  0
    4.5298   -3.6550    0.0000 C   0  0  0  0  0  0  0  0  0  0  0  0
    6.2619    1.3450    0.0000 C   0  0  0  0  0  0  0  0  0  0  0  0
    6.2619    2.3450    0.0000 C   0  0  0  0  0  0  0  0  0  0  0  0
    7.1279    2.8450    0.0000 C   0  0  2  0  0  0  0  0  0  0  0  0
    7.1279    3.8450    0.0000 C   0  0  0  0  0  0  0  0  0  0  0  0
    5.3958    2.8450    0.0000 C   0  0  0  0  0  0  0  0  0  0  0  0
    4.4399    0.1902    0.0000 H   0  0  0  0  0  0  0  0  0  0  0  0
    5.9328    0.1550    0.0000 H   0  0  0  0  0  0  0  0  0  0  0  0
    4.4399   -2.5002    0.0000 H   0  0  0  0  0  0  0  0  0  0  0  0
    6.8725   -0.7627    0.0000 H   0  0  0  0  0  0  0  0  0  0  0  0
    6.4739   -0.0724    0.0000 H   0  0  0  0  0  0  0  0  0  0  0  0
    6.0064   -2.2627    0.0000 H   0  0  0  0  0  0  0  0  0  0  0  0
    5.8633   -4.1300    0.0000 H   0  0  0  0  0  0  0  0  0  0  0  0
    6.6604   -4.1300    0.0000 H   0  0  0  0  0  0  0  0  0  0  0  0
    7.3400   -3.7376    0.0000 H   0  0  0  0  0  0  0  0  0  0  0  0
    7.7385   -3.0473    0.0000 H   0  0  0  0  0  0  0  0  0  0  0  0
    7.6648   -1.8450    0.0000 H   0  0  0  0  0  0  0  0  0  0  0  0
    3.6870    1.0617    0.0000 H   0  0  0  0  0  0  0  0  0  0  0  0
    2.6663    0.7281    0.0000 H   0  0  0  0  0  0  0  0  0  0  0  0
    4.5933   -1.6025    0.0000 H   0  0  0  0  0  0  0  0  0  0  0  0
    4.2227   -2.3971    0.0000 H   0  0  0  0  0  0  0  0  0  0  0  0
    5.0174   -2.7677    0.0000 H   0  0  0  0  0  0  0  0  0  0  0  0
    4.3178   -3.0724    0.0000 H   0  0  0  0  0  0  0  0  0  0  0  0
    3.9192   -3.7627    0.0000 H   0  0  0  0  0  0  0  0  0  0  0  0
    7.1279    2.2250    0.0000 H   0  0  0  0  0  0  0  0  0  0  0  0
    3.9929   -4.9650    0.0000 H   0  0  0  0  0  0  0  0  0  0  0  0
    6.9158    4.4276    0.0000 H   0  0  0  0  0  0  0  0  0  0  0  0
    6.5173    3.7373    0.0000 H   0  0  0  0  0  0  0  0  0  0  0  0
    5.3958    3.4650    0.0000 H   0  0  0  0  0  0  0  0  0  0  0  0
    4.8589    2.5350    0.0000 H   0  0  0  0  0  0  0  0  0  0  0  0
    8.5309    2.6550    0.0000 H   0  0  0  0  0  0  0  0  0  0  0  0
    7.9939    4.9650    0.0000 H   0  0  0  0  0  0  0  0  0  0  0  0
  1 10  1  0  0  0  0
  1 15  1  0  0  0  0
  9  2  1  1  0  0  0
  2 23  1  0  0  0  0
  3 15  2  0  0  0  0
  4 22  1  0  0  0  0
  4 47  1  0  0  0  0
  5 23  2  0  0  0  0
 25  6  1  6  0  0  0
  6 52  1  0  0  0  0
  7 26  1  0  0  0  0
  7 53  1  0  0  0  0
  8  9  1  0  0  0  0
  8 10  1  0  0  0  0
  8 12  1  0  0  0  0
  8 28  1  1  0  0  0
  9 11  1  0  0  0  0
  9 29  1  0  0  0  0
 10 13  1  0  0  0  0
 10 30  1  6  0  0  0
 11 14  1  0  0  0  0
 11 31  1  0  0  0  0
 11 32  1  0  0  0  0
 12 15  1  0  0  0  0
 12 20  2  0  0  0  0
 13 16  2  0  0  0  0
 13 33  1  0  0  0  0
 14 19  2  0  0  0  0
 14 21  1  0  0  0  0
 16 17  1  0  0  0  0
 16 22  1  0  0  0  0
 17 18  1  0  0  0  0
 17 34  1  0  0  0  0
 17 35  1  0  0  0  0
 18 19  1  0  0  0  0
 18 36  1  0  0  0  0
 18 37  1  0  0  0  0
 19 38  1  0  0  0  0
 20 39  1  0  0  0  0
 20 40  1  0  0  0  0
 21 41  1  0  0  0  0
 21 42  1  0  0  0  0
 21 43  1  0  0  0  0
 22 44  1  0  0  0  0
 22 45  1  0  0  0  0
 23 24  1  0  0  0  0
 24 25  1  0  0  0  0
 24 27  2  0  0  0  0
 25 26  1  0  0  0  0
 25 46  1  0  0  0  0
 26 48  1  0  0  0  0
 26 49  1  0  0  0  0
 27 50  1  0  0  0  0
 27 51  1  0  0  0  0
M  END
> <PUBCHEM_COMPOUND_CID>
5281435

> <PUBCHEM_COMPOUND_CANONICALIZED>
1

> <PUBCHEM_CACTVS_COMPLEXITY>
688

> <PUBCHEM_CACTVS_HBOND_ACCEPTOR>
7

> <PUBCHEM_CACTVS_HBOND_DONOR>
3

> <PUBCHEM_CACTVS_ROTATABLE_BOND>
6

> <PUBCHEM_CACTVS_SUBSKEYS>
AAADceB4OAAAAAAAAAAAAAAAAAAAASAAAAAAAAAAAAAAAACAAAAAGgAACAAADRSggAICCAAABgCIAiDSCAAAAAAgAAAACAEAAEgBFBYAIQACUAAF4AAJMIPKyCCOAAAAAAAAAAAAAAAAAAAAAAAAAAAAAA==

> <PUBCHEM_IUPAC_OPENEYE_NAME>
[(3aR,4S,6E,10Z,11aR)-10-(hydroxymethyl)-6-methyl-3-methylene-2-oxo-3a,4,5,8,9,11a-hexahydrocyclodeca[b]furan-4-yl] (3R)-3,4-dihydroxy-2-methylene-butanoate

> <PUBCHEM_IUPAC_CAS_NAME>
(3R)-3,4-dihydroxy-2-methylenebutanoic acid [(3aR,4S,6E,10Z,11aR)-10-(hydroxymethyl)-6-methyl-3-methylene-2-oxo-3a,4,5,8,9,11a-hexahydrocyclodeca[b]furan-4-yl] ester

> <PUBCHEM_IUPAC_NAME_MARKUP>
[(3<I>a</I><I>R</I>,4<I>S</I>,6<I>E</I>,10<I>Z</I>,11<I>a</I><I>R</I>)-10-(hydroxymethyl)-6-methyl-3-methylidene-2-oxo-3<I>a</I>,4,5,8,9,11<I>a</I>-hexahydrocyclodeca[b]furan-4-yl] (3<I>R</I>)-3,4-dihydroxy-2-methylidenebutanoate

> <PUBCHEM_IUPAC_NAME>
[(3aR,4S,6E,10Z,11aR)-10-(hydroxymethyl)-6-methyl-3-methylidene-2-oxo-3a,4,5,8,9,11a-hexahydrocyclodeca[b]furan-4-yl] (3R)-3,4-dihydroxy-2-methylidenebutanoate

> <PUBCHEM_IUPAC_SYSTEMATIC_NAME>
[(3aR,4S,6E,10Z,11aR)-10-(hydroxymethyl)-6-methyl-3-methylidene-2-oxidanylidene-3a,4,5,8,9,11a-hexahydrocyclodeca[b]furan-4-yl] (3R)-2-methylidene-3,4-bis(oxidanyl)butanoate

> <PUBCHEM_IUPAC_TRADITIONAL_NAME>
2-[(1R)-1,2-dihydroxyethyl]acrylic acid [(3aR,4S,6E,10Z,11aR)-2-keto-6-methyl-3-methylene-10-methylol-3a,4,5,8,9,11a-hexahydrocyclodeca[b]furan-4-yl] ester

> <PUBCHEM_IUPAC_INCHI>
InChI=1S/C20H26O7/c1-11-5-4-6-14(9-21)8-17-18(13(3)20(25)27-17)16(7-11)26-19(24)12(2)15(23)10-22/h5,8,15-18,21-23H,2-4,6-7,9-10H2,1H3/b11-5+,14-8-/t15-,16-,17+,18+/m0/s1

> <PUBCHEM_IUPAC_INCHIKEY>
ZTDFZLVUIVPZDU-QGNHJMHWSA-N

> <PUBCHEM_XLOGP3_AA>
0.2

> <PUBCHEM_EXACT_MASS>
378.16785316

> <PUBCHEM_MOLECULAR_FORMULA>
C20H26O7

> <PUBCHEM_MOLECULAR_WEIGHT>
378.4

> <PUBCHEM_OPENEYE_CAN_SMILES>
CC1=CCCC(=CC2C(C(C1)OC(=O)C(=C)C(CO)O)C(=C)C(=O)O2)CO

> <PUBCHEM_OPENEYE_ISO_SMILES>
C/C/1=C\CC/C(=C/[C@@H]2[C@@H]([C@H](C1)OC(=O)C(=C)[C@H](CO)O)C(=C)C(=O)O2)/CO

> <PUBCHEM_CACTVS_TPSA>
113

> <PUBCHEM_MONOISOTOPIC_WEIGHT>
378.16785316

> <PUBCHEM_TOTAL_CHARGE>
0

> <PUBCHEM_HEAVY_ATOM_COUNT>
27

> <PUBCHEM_ATOM_DEF_STEREO_COUNT>
4

> <PUBCHEM_ATOM_UDEF_STEREO_COUNT>
0

> <PUBCHEM_BOND_DEF_STEREO_COUNT>
2

> <PUBCHEM_BOND_UDEF_STEREO_COUNT>
0

> <PUBCHEM_ISOTOPIC_ATOM_COUNT>
0

> <PUBCHEM_COMPONENT_COUNT>
1

> <PUBCHEM_CACTVS_TAUTO_COUNT>
-1

> <PUBCHEM_COORDINATE_TYPE>
1
5
255

> <PUBCHEM_BONDANNOTATIONS>
10  30  6
9  2  5
25  6  6
8  28  5

$$$$
