Neobavaisoflavone
  -OEChem-12162008103D

 42 44  0     0  0  0  0  0  0999 V2000
    2.9803    1.3528    1.2266 O   0  0  0  0  0  0  0  0  0  0  0  0
   -4.5686    1.7776   -0.6524 O   0  0  0  0  0  0  0  0  0  0  0  0
    1.0803   -0.9597   -1.5465 O   0  0  0  0  0  0  0  0  0  0  0  0
    7.0927   -0.9084    0.5082 O   0  0  0  0  0  0  0  0  0  0  0  0
   -0.5132    1.0453   -0.1183 C   0  0  0  0  0  0  0  0  0  0  0  0
   -2.8145    0.5983    0.4780 C   0  0  0  0  0  0  0  0  0  0  0  0
    0.9244    0.7874    0.0639 C   0  0  0  0  0  0  0  0  0  0  0  0
   -3.8021   -0.1496    1.3114 C   0  0  0  0  0  0  0  0  0  0  0  0
   -1.4520    0.3557    0.6522 C   0  0  0  0  0  0  0  0  0  0  0  0
    3.0681   -0.4546   -0.3906 C   0  0  0  0  0  0  0  0  0  0  0  0
    1.6373   -0.2744   -0.6986 C   0  0  0  0  0  0  0  0  0  0  0  0
   -3.2416    1.5312   -0.4669 C   0  0  0  0  0  0  0  0  0  0  0  0
   -0.9435    1.9787   -1.0637 C   0  0  0  0  0  0  0  0  0  0  0  0
    3.6676    0.3724    0.5584 C   0  0  0  0  0  0  0  0  0  0  0  0
   -2.3060    2.2214   -1.2378 C   0  0  0  0  0  0  0  0  0  0  0  0
    1.6430    1.4973    0.9467 C   0  0  0  0  0  0  0  0  0  0  0  0
   -4.2455   -1.4440    0.6761 C   0  0  0  0  0  0  0  0  0  0  0  0
    3.8187   -1.4372   -1.0417 C   0  0  0  0  0  0  0  0  0  0  0  0
   -5.4873   -1.7994    0.2948 C   0  0  0  0  0  0  0  0  0  0  0  0
    5.0212    0.2221    0.8618 C   0  0  0  0  0  0  0  0  0  0  0  0
    5.1722   -1.5860   -0.7360 C   0  0  0  0  0  0  0  0  0  0  0  0
    5.7724   -0.7582    0.2135 C   0  0  0  0  0  0  0  0  0  0  0  0
   -5.8595   -3.1116   -0.3349 C   0  0  0  0  0  0  0  0  0  0  0  0
   -6.6445   -0.8573    0.4958 C   0  0  0  0  0  0  0  0  0  0  0  0
   -3.3342   -0.4079    2.2721 H   0  0  0  0  0  0  0  0  0  0  0  0
   -4.6224    0.5107    1.6027 H   0  0  0  0  0  0  0  0  0  0  0  0
   -1.1192   -0.3744    1.3874 H   0  0  0  0  0  0  0  0  0  0  0  0
   -0.2267    2.5237   -1.6735 H   0  0  0  0  0  0  0  0  0  0  0  0
   -2.6247    2.9500   -1.9784 H   0  0  0  0  0  0  0  0  0  0  0  0
    1.2305    2.2897    1.5592 H   0  0  0  0  0  0  0  0  0  0  0  0
   -3.4495   -2.1720    0.5195 H   0  0  0  0  0  0  0  0  0  0  0  0
    3.3706   -2.0912   -1.7842 H   0  0  0  0  0  0  0  0  0  0  0  0
    5.4907    0.8660    1.6012 H   0  0  0  0  0  0  0  0  0  0  0  0
    5.7495   -2.3526   -1.2461 H   0  0  0  0  0  0  0  0  0  0  0  0
   -4.9895   -3.7681   -0.4410 H   0  0  0  0  0  0  0  0  0  0  0  0
   -6.5996   -3.6337    0.2799 H   0  0  0  0  0  0  0  0  0  0  0  0
   -6.2812   -2.9516   -1.3324 H   0  0  0  0  0  0  0  0  0  0  0  0
   -6.3780    0.1712    0.7364 H   0  0  0  0  0  0  0  0  0  0  0  0
   -7.2391   -0.8043   -0.4237 H   0  0  0  0  0  0  0  0  0  0  0  0
   -7.2940   -1.2330    1.2936 H   0  0  0  0  0  0  0  0  0  0  0  0
   -4.6727    2.4496   -1.3477 H   0  0  0  0  0  0  0  0  0  0  0  0
    7.4560   -1.6312   -0.0318 H   0  0  0  0  0  0  0  0  0  0  0  0
  1 14  1  0  0  0  0
  1 16  1  0  0  0  0
  2 12  1  0  0  0  0
  2 41  1  0  0  0  0
  3 11  2  0  0  0  0
  4 22  1  0  0  0  0
  4 42  1  0  0  0  0
  5  7  1  0  0  0  0
  5  9  2  0  0  0  0
  5 13  1  0  0  0  0
  6  8  1  0  0  0  0
  6  9  1  0  0  0  0
  6 12  2  0  0  0  0
  7 11  1  0  0  0  0
  7 16  2  0  0  0  0
  8 17  1  0  0  0  0
  8 25  1  0  0  0  0
  8 26  1  0  0  0  0
  9 27  1  0  0  0  0
 10 11  1  0  0  0  0
 10 14  2  0  0  0  0
 10 18  1  0  0  0  0
 12 15  1  0  0  0  0
 13 15  2  0  0  0  0
 13 28  1  0  0  0  0
 14 20  1  0  0  0  0
 15 29  1  0  0  0  0
 16 30  1  0  0  0  0
 17 19  2  0  0  0  0
 17 31  1  0  0  0  0
 18 21  2  0  0  0  0
 18 32  1  0  0  0  0
 19 23  1  0  0  0  0
 19 24  1  0  0  0  0
 20 22  2  0  0  0  0
 20 33  1  0  0  0  0
 21 22  1  0  0  0  0
 21 34  1  0  0  0  0
 23 35  1  0  0  0  0
 23 36  1  0  0  0  0
 23 37  1  0  0  0  0
 24 38  1  0  0  0  0
 24 39  1  0  0  0  0
 24 40  1  0  0  0  0
M  END
> <PUBCHEM_COMPOUND_CID>
5320053

> <PUBCHEM_CONFORMER_RMSD>
0.6

> <PUBCHEM_CONFORMER_DIVERSEORDER>
1
61
58
47
67
69
63
51
20
34
45
53
68
35
11
64
50
21
70
32
39
31
24
54
52
3
42
43
36
15
26
38
27
46
29
17
49
59
7
37
23
12
56
44
57
22
60
55
62
6
65
14
41
66
16
10
40
48
13
4
28
33
30
8
19
18
2
25
9
5

> <PUBCHEM_MMFF94_PARTIAL_CHARGES>
34
1 -0.16
10 0.09
11 0.47
12 0.08
13 -0.15
14 0.08
15 -0.15
16 -0.07
17 -0.29
18 -0.15
19 -0.28
2 -0.53
20 -0.15
21 -0.15
22 0.08
23 0.14
24 0.14
27 0.15
28 0.15
29 0.15
3 -0.57
30 0.15
31 0.15
32 0.15
33 0.15
34 0.15
4 -0.53
41 0.45
42 0.45
5 0.03
6 -0.14
7 -0.01
8 0.28
9 -0.15

> <PUBCHEM_EFFECTIVE_ROTOR_COUNT>
3

> <PUBCHEM_PHARMACOPHORE_FEATURES>
8
1 1 acceptor
1 2 donor
1 3 acceptor
1 4 donor
3 19 23 24 hydrophobe
6 1 7 10 11 14 16 rings
6 10 14 18 20 21 22 rings
6 5 6 9 12 13 15 rings

> <PUBCHEM_HEAVY_ATOM_COUNT>
24

> <PUBCHEM_ATOM_DEF_STEREO_COUNT>
0

> <PUBCHEM_ATOM_UDEF_STEREO_COUNT>
0

> <PUBCHEM_BOND_DEF_STEREO_COUNT>
0

> <PUBCHEM_BOND_UDEF_STEREO_COUNT>
0

> <PUBCHEM_ISOTOPIC_ATOM_COUNT>
0

> <PUBCHEM_COMPONENT_COUNT>
1

> <PUBCHEM_CACTVS_TAUTO_COUNT>
15

> <PUBCHEM_CONFORMER_ID>
00512D7500000001

> <PUBCHEM_MMFF94_ENERGY>
65.8433

> <PUBCHEM_FEATURE_SELFOVERLAP>
40.623

> <PUBCHEM_SHAPE_FINGERPRINT>
10 15 13110965336137232259
11545043 162 18410290293982548929
11796584 16 18046343042365014306
12166972 35 16660649608962050303
12236239 1 15647342883669172036
12422481 6 17845939632026343359
12596602 18 17060347313700742578
12616971 3 15697996361894715832
13402501 40 18413674603763460839
13782708 43 18412262843660094458
14251751 18 18411421717401794311
14294032 229 16951676988561786229
14341114 328 15913336827129062931
14508225 48 17603583062971134245
14556957 393 16081095844144276311
14849402 71 15912467135222652626
14950920 106 17131557236409101931
15183329 4 14273728565013530111
15188451 53 18186515510239197874
15880784 105 18343025531712884403
16752209 62 17312816091871347001
18222031 100 18186804711661549037
18785283 64 18200027477843440472
19377110 9 15267341821097043463
20028762 73 18131353050281228903
21033648 29 18129079153393217664
21267235 1 17967537896118113961
21623969 137 17917994962547531342
23402539 116 17313107418996560764
23522609 53 18121252902061273440
23557571 272 18334857212580643249
23559900 14 18334570213922802260
23569914 152 12616634726252241962
25222932 49 18411411813698326838
26918003 58 18131634452495949329
2838139 119 10809336776283095435
29717793 49 16225767398273420290
3004659 81 17313103098707730307
312425 54 17988376892354221035
4073 2 18341332188895081873
465052 167 18202004326645403878
5104073 3 17845936217347442970
5718773 13 18409727378457859875
59682541 35 18059845165951128754
59682541 52 13551735388505812451
59755656 215 18186516592840287443
59755656 520 18190743021428174129
7495541 125 18411702088972972856
8863177 126 18343302573988407150

> <PUBCHEM_SHAPE_MULTIPOLES>
470.43
16.13
2.43
1.2
0.87
0.44
0.07
11.61
-2.24
-3.36
0.69
0.19
-0.17
1.4

> <PUBCHEM_SHAPE_SELFOVERLAP>
1026.269

> <PUBCHEM_SHAPE_VOLUME>
255.2

> <PUBCHEM_COORDINATE_TYPE>
2
5
10

$$$$
