SV_J22_0004
  -OEChem-07172407052D

 66 66  0     1  0  0  0  0  0999 V2000
    2.5369   -2.7500    0.0000 O   0  0  0  0  0  0  0  0  0  0  0  0
    2.5369   -4.7500    0.0000 O   0  0  0  0  0  0  0  0  0  0  0  0
    4.2690   -5.7500    0.0000 O   0  0  0  0  0  0  0  0  0  0  0  0
    6.0010   -4.7500    0.0000 O   0  0  0  0  0  0  0  0  0  0  0  0
    4.2690   -2.7500    0.0000 C   0  0  2  0  0  0  0  0  0  0  0  0
    5.1350   -3.2500    0.0000 C   0  0  2  0  0  0  0  0  0  0  0  0
    3.4030   -3.2500    0.0000 C   0  0  2  0  0  0  0  0  0  0  0  0
    4.2690   -1.7500    0.0000 C   0  0  0  0  0  0  0  0  0  0  0  0
    5.1350   -4.2500    0.0000 C   0  0  0  0  0  0  0  0  0  0  0  0
    3.4030   -4.2500    0.0000 C   0  0  0  0  0  0  0  0  0  0  0  0
    6.0010   -2.7500    0.0000 C   0  0  0  0  0  0  0  0  0  0  0  0
    4.2690   -4.7500    0.0000 C   0  0  0  0  0  0  0  0  0  0  0  0
    5.1350   -1.2500    0.0000 C   0  0  0  0  0  0  0  0  0  0  0  0
    5.1350   -0.2500    0.0000 C   0  0  0  0  0  0  0  0  0  0  0  0
    6.0010    0.2500    0.0000 C   0  0  0  0  0  0  0  0  0  0  0  0
    4.2690    0.2500    0.0000 C   0  0  0  0  0  0  0  0  0  0  0  0
    6.0010    1.2500    0.0000 C   0  0  0  0  0  0  0  0  0  0  0  0
    2.5369   -5.7500    0.0000 C   0  0  0  0  0  0  0  0  0  0  0  0
    5.1350   -6.2500    0.0000 C   0  0  0  0  0  0  0  0  0  0  0  0
    6.8671    1.7500    0.0000 C   0  0  0  0  0  0  0  0  0  0  0  0
    6.8671    2.7500    0.0000 C   0  0  0  0  0  0  0  0  0  0  0  0
    7.7331    3.2500    0.0000 C   0  0  0  0  0  0  0  0  0  0  0  0
    7.7331    4.2500    0.0000 C   0  0  0  0  0  0  0  0  0  0  0  0
    6.0010    3.2500    0.0000 C   0  0  0  0  0  0  0  0  0  0  0  0
    8.5991    4.7500    0.0000 C   0  0  0  0  0  0  0  0  0  0  0  0
    8.5991    5.7500    0.0000 C   0  0  0  0  0  0  0  0  0  0  0  0
    9.4651    6.2500    0.0000 C   0  0  0  0  0  0  0  0  0  0  0  0
    7.7331    6.2500    0.0000 C   0  0  0  0  0  0  0  0  0  0  0  0
    4.8059   -2.4400    0.0000 H   0  0  0  0  0  0  0  0  0  0  0  0
    5.6720   -3.5600    0.0000 H   0  0  0  0  0  0  0  0  0  0  0  0
    3.4030   -2.6300    0.0000 H   0  0  0  0  0  0  0  0  0  0  0  0
    4.0569   -1.1674    0.0000 H   0  0  0  0  0  0  0  0  0  0  0  0
    3.6584   -1.8577    0.0000 H   0  0  0  0  0  0  0  0  0  0  0  0
    6.3110   -3.2869    0.0000 H   0  0  0  0  0  0  0  0  0  0  0  0
    6.5380   -2.4400    0.0000 H   0  0  0  0  0  0  0  0  0  0  0  0
    5.6910   -2.2131    0.0000 H   0  0  0  0  0  0  0  0  0  0  0  0
    5.6720   -1.5600    0.0000 H   0  0  0  0  0  0  0  0  0  0  0  0
    2.0000   -3.0600    0.0000 H   0  0  0  0  0  0  0  0  0  0  0  0
    6.2131   -0.3326    0.0000 H   0  0  0  0  0  0  0  0  0  0  0  0
    6.6116    0.3577    0.0000 H   0  0  0  0  0  0  0  0  0  0  0  0
    4.5790    0.7869    0.0000 H   0  0  0  0  0  0  0  0  0  0  0  0
    3.7320    0.5600    0.0000 H   0  0  0  0  0  0  0  0  0  0  0  0
    3.9590   -0.2869    0.0000 H   0  0  0  0  0  0  0  0  0  0  0  0
    5.7890    1.8326    0.0000 H   0  0  0  0  0  0  0  0  0  0  0  0
    5.3905    1.1423    0.0000 H   0  0  0  0  0  0  0  0  0  0  0  0
    1.9169   -5.7500    0.0000 H   0  0  0  0  0  0  0  0  0  0  0  0
    2.5369   -6.3700    0.0000 H   0  0  0  0  0  0  0  0  0  0  0  0
    3.1569   -5.7500    0.0000 H   0  0  0  0  0  0  0  0  0  0  0  0
    4.8250   -6.7869    0.0000 H   0  0  0  0  0  0  0  0  0  0  0  0
    5.6720   -6.5600    0.0000 H   0  0  0  0  0  0  0  0  0  0  0  0
    5.4450   -5.7131    0.0000 H   0  0  0  0  0  0  0  0  0  0  0  0
    7.4040    1.4400    0.0000 H   0  0  0  0  0  0  0  0  0  0  0  0
    7.9451    2.6674    0.0000 H   0  0  0  0  0  0  0  0  0  0  0  0
    8.3437    3.3577    0.0000 H   0  0  0  0  0  0  0  0  0  0  0  0
    7.5210    4.8326    0.0000 H   0  0  0  0  0  0  0  0  0  0  0  0
    7.1225    4.1423    0.0000 H   0  0  0  0  0  0  0  0  0  0  0  0
    6.3110    3.7869    0.0000 H   0  0  0  0  0  0  0  0  0  0  0  0
    5.4641    3.5600    0.0000 H   0  0  0  0  0  0  0  0  0  0  0  0
    5.6910    2.7131    0.0000 H   0  0  0  0  0  0  0  0  0  0  0  0
    9.1360    4.4400    0.0000 H   0  0  0  0  0  0  0  0  0  0  0  0
    9.7751    5.7131    0.0000 H   0  0  0  0  0  0  0  0  0  0  0  0
   10.0021    6.5600    0.0000 H   0  0  0  0  0  0  0  0  0  0  0  0
    9.1551    6.7869    0.0000 H   0  0  0  0  0  0  0  0  0  0  0  0
    8.0431    6.7869    0.0000 H   0  0  0  0  0  0  0  0  0  0  0  0
    7.1962    6.5600    0.0000 H   0  0  0  0  0  0  0  0  0  0  0  0
    7.4231    5.7131    0.0000 H   0  0  0  0  0  0  0  0  0  0  0  0
  7  1  1  6  0  0  0
  1 38  1  0  0  0  0
  2 10  1  0  0  0  0
  2 18  1  0  0  0  0
  3 12  1  0  0  0  0
  3 19  1  0  0  0  0
  4  9  2  0  0  0  0
  5  6  1  0  0  0  0
  5  7  1  0  0  0  0
  5  8  1  6  0  0  0
  5 29  1  0  0  0  0
  6  9  1  0  0  0  0
  6 11  1  1  0  0  0
  6 30  1  0  0  0  0
  7 10  1  0  0  0  0
  7 31  1  0  0  0  0
  8 13  1  0  0  0  0
  8 32  1  0  0  0  0
  8 33  1  0  0  0  0
  9 12  1  0  0  0  0
 10 12  2  0  0  0  0
 11 34  1  0  0  0  0
 11 35  1  0  0  0  0
 11 36  1  0  0  0  0
 13 14  2  0  0  0  0
 13 37  1  0  0  0  0
 14 15  1  0  0  0  0
 14 16  1  0  0  0  0
 15 17  1  0  0  0  0
 15 39  1  0  0  0  0
 15 40  1  0  0  0  0
 16 41  1  0  0  0  0
 16 42  1  0  0  0  0
 16 43  1  0  0  0  0
 17 20  1  0  0  0  0
 17 44  1  0  0  0  0
 17 45  1  0  0  0  0
 18 46  1  0  0  0  0
 18 47  1  0  0  0  0
 18 48  1  0  0  0  0
 19 49  1  0  0  0  0
 19 50  1  0  0  0  0
 19 51  1  0  0  0  0
 20 21  2  0  0  0  0
 20 52  1  0  0  0  0
 21 22  1  0  0  0  0
 21 24  1  0  0  0  0
 22 23  1  0  0  0  0
 22 53  1  0  0  0  0
 22 54  1  0  0  0  0
 23 25  1  0  0  0  0
 23 55  1  0  0  0  0
 23 56  1  0  0  0  0
 24 57  1  0  0  0  0
 24 58  1  0  0  0  0
 24 59  1  0  0  0  0
 25 26  2  0  0  0  0
 25 60  1  0  0  0  0
 26 27  1  0  0  0  0
 26 28  1  0  0  0  0
 27 61  1  0  0  0  0
 27 62  1  0  0  0  0
 27 63  1  0  0  0  0
 28 64  1  0  0  0  0
 28 65  1  0  0  0  0
 28 66  1  0  0  0  0
M  END
> <PUBCHEM_COMPOUND_CID>
24875259

> <PUBCHEM_COMPOUND_CANONICALIZED>
1

> <PUBCHEM_CACTVS_COMPLEXITY>
648

> <PUBCHEM_CACTVS_HBOND_ACCEPTOR>
4

> <PUBCHEM_CACTVS_HBOND_DONOR>
1

> <PUBCHEM_CACTVS_ROTATABLE_BOND>
10

> <PUBCHEM_CACTVS_SUBSKEYS>
AAADcfB4OAAAAAAAAAAAAAAAAAAAAAAAAAAgAAAAAAAAAAAAAAAAGgAACAAADRSggAICAAAABgCIAqBSAAIACAAgIAAACAFAAEgBFBIAAQQAUAAEgAALEQOKZAwOgAAAAAAAAAAAAAAAAAAAAAAAAAAAAA==

> <PUBCHEM_IUPAC_OPENEYE_NAME>
(4R,5R,6R)-4-hydroxy-2,3-dimethoxy-6-methyl-5-[(2E,6E)-3,7,11-trimethyldodeca-2,6,10-trienyl]cyclohex-2-en-1-one

> <PUBCHEM_IUPAC_CAS_NAME>
(4R,5R,6R)-4-hydroxy-2,3-dimethoxy-6-methyl-5-[(2E,6E)-3,7,11-trimethyldodeca-2,6,10-trienyl]-1-cyclohex-2-enone

> <PUBCHEM_IUPAC_NAME_MARKUP>
(4<I>R</I>,5<I>R</I>,6<I>R</I>)-4-hydroxy-2,3-dimethoxy-6-methyl-5-[(2<I>E</I>,6<I>E</I>)-3,7,11-trimethyldodeca-2,6,10-trienyl]cyclohex-2-en-1-one

> <PUBCHEM_IUPAC_NAME>
(4R,5R,6R)-4-hydroxy-2,3-dimethoxy-6-methyl-5-[(2E,6E)-3,7,11-trimethyldodeca-2,6,10-trienyl]cyclohex-2-en-1-one

> <PUBCHEM_IUPAC_SYSTEMATIC_NAME>
(4R,5R,6R)-2,3-dimethoxy-6-methyl-4-oxidanyl-5-[(2E,6E)-3,7,11-trimethyldodeca-2,6,10-trienyl]cyclohex-2-en-1-one

> <PUBCHEM_IUPAC_TRADITIONAL_NAME>
(4R,5R,6R)-4-hydroxy-2,3-dimethoxy-6-methyl-5-[(2E,6E)-3,7,11-trimethyldodeca-2,6,10-trienyl]cyclohex-2-en-1-one

> <PUBCHEM_IUPAC_INCHI>
InChI=1S/C24H38O4/c1-16(2)10-8-11-17(3)12-9-13-18(4)14-15-20-19(5)21(25)23(27-6)24(28-7)22(20)26/h10,12,14,19-20,22,26H,8-9,11,13,15H2,1-7H3/b17-12+,18-14+/t19-,20-,22-/m1/s1

> <PUBCHEM_IUPAC_INCHIKEY>
LJTSIMVOOOLKOL-FNRDIUJOSA-N

> <PUBCHEM_XLOGP3_AA>
5.8

> <PUBCHEM_EXACT_MASS>
390.27700969

> <PUBCHEM_MOLECULAR_FORMULA>
C24H38O4

> <PUBCHEM_MOLECULAR_WEIGHT>
390.6

> <PUBCHEM_OPENEYE_CAN_SMILES>
CC1C(C(C(=C(C1=O)OC)OC)O)CC=C(C)CCC=C(C)CCC=C(C)C

> <PUBCHEM_OPENEYE_ISO_SMILES>
C[C@@H]1[C@H]([C@H](C(=C(C1=O)OC)OC)O)C/C=C(\C)/CC/C=C(\C)/CCC=C(C)C

> <PUBCHEM_CACTVS_TPSA>
55.8

> <PUBCHEM_MONOISOTOPIC_WEIGHT>
390.27700969

> <PUBCHEM_TOTAL_CHARGE>
0

> <PUBCHEM_HEAVY_ATOM_COUNT>
28

> <PUBCHEM_ATOM_DEF_STEREO_COUNT>
3

> <PUBCHEM_ATOM_UDEF_STEREO_COUNT>
0

> <PUBCHEM_BOND_DEF_STEREO_COUNT>
2

> <PUBCHEM_BOND_UDEF_STEREO_COUNT>
0

> <PUBCHEM_ISOTOPIC_ATOM_COUNT>
0

> <PUBCHEM_COMPONENT_COUNT>
1

> <PUBCHEM_CACTVS_TAUTO_COUNT>
2

> <PUBCHEM_COORDINATE_TYPE>
1
5
255

> <PUBCHEM_BONDANNOTATIONS>
7  1  6
5  8  6
6  11  5

$$$$
