SV_J28_0002
  -OEChem-07172407372D

 94 94  0     1  0  0  0  0  0999 V2000
    9.8222   -2.8807    0.0000 O   0  0  0  0  0  0  0  0  0  0  0  0
    8.9562   -1.3807    0.0000 O   0  0  0  0  0  0  0  0  0  0  0  0
    8.0902   -1.8807    0.0000 O   0  0  0  0  0  0  0  0  0  0  0  0
    7.2242   -1.3807    0.0000 O   0  0  0  0  0  0  0  0  0  0  0  0
    2.6723    4.9672    0.0000 O   0  0  0  0  0  0  0  0  0  0  0  0
    2.8940    1.1193    0.0000 O   0  0  0  0  0  0  0  0  0  0  0  0
    5.5202    2.8981    0.0000 O   0  0  0  0  0  0  0  0  0  0  0  0
   11.5543   -1.8807    0.0000 N   0  0  0  0  0  0  0  0  0  0  0  0
    7.2242   -3.3807    0.0000 N   0  0  0  0  0  0  0  0  0  0  0  0
    5.4921   -1.3807    0.0000 N   0  0  0  0  0  0  0  0  0  0  0  0
    3.7601    2.6193    0.0000 N   0  0  0  0  0  0  0  0  0  0  0  0
   10.6883   -0.3807    0.0000 C   0  0  2  0  0  0  0  0  0  0  0  0
   10.6883   -1.3807    0.0000 C   0  0  1  0  0  0  0  0  0  0  0  0
    8.9562   -3.3807    0.0000 C   0  0  1  0  0  0  0  0  0  0  0  0
    8.9562   -4.3807    0.0000 C   0  0  0  0  0  0  0  0  0  0  0  0
   11.5543    0.1193    0.0000 C   0  0  0  0  0  0  0  0  0  0  0  0
    6.3582   -2.8807    0.0000 C   0  0  1  0  0  0  0  0  0  0  0  0
    5.4921   -3.3807    0.0000 C   0  0  0  0  0  0  0  0  0  0  0  0
    9.8222   -4.8807    0.0000 C   0  0  0  0  0  0  0  0  0  0  0  0
    9.8222   -1.8807    0.0000 C   0  0  0  0  0  0  0  0  0  0  0  0
    5.4921   -4.3807    0.0000 C   0  0  0  0  0  0  0  0  0  0  0  0
    9.8222    0.1193    0.0000 C   0  0  0  0  0  0  0  0  0  0  0  0
    8.0902   -2.8807    0.0000 C   0  0  0  0  0  0  0  0  0  0  0  0
   11.5543    1.1193    0.0000 C   0  0  0  0  0  0  0  0  0  0  0  0
    6.3582   -1.8807    0.0000 C   0  0  0  0  0  0  0  0  0  0  0  0
    9.8222   -5.8807    0.0000 C   0  0  0  0  0  0  0  0  0  0  0  0
   10.6883   -4.3807    0.0000 C   0  0  0  0  0  0  0  0  0  0  0  0
   12.4203   -1.3807    0.0000 C   0  0  0  0  0  0  0  0  0  0  0  0
   11.5543   -2.8807    0.0000 C   0  0  0  0  0  0  0  0  0  0  0  0
    4.6261   -4.8807    0.0000 C   0  0  0  0  0  0  0  0  0  0  0  0
    6.3582   -4.8807    0.0000 C   0  0  0  0  0  0  0  0  0  0  0  0
    5.4921   -0.3807    0.0000 C   0  0  1  0  0  0  0  0  0  0  0  0
    6.3582    0.1193    0.0000 C   0  0  0  0  0  0  0  0  0  0  0  0
    4.6261    0.1193    0.0000 C   0  0  0  0  0  0  0  0  0  0  0  0
    2.9511    3.2071    0.0000 C   0  0  2  0  0  0  0  0  0  0  0  0
    4.6261    1.1193    0.0000 C   0  0  0  0  0  0  0  0  0  0  0  0
    3.2601    4.1581    0.0000 C   0  0  0  0  0  0  0  0  0  0  0  0
    3.7601    1.6193    0.0000 C   0  0  0  0  0  0  0  0  0  0  0  0
    4.5691    3.2071    0.0000 C   0  0  0  0  0  0  0  0  0  0  0  0
    2.0000    2.8981    0.0000 C   0  0  0  0  0  0  0  0  0  0  0  0
    4.2601    4.1581    0.0000 C   0  0  0  0  0  0  0  0  0  0  0  0
    3.0790    5.8807    0.0000 C   0  0  0  0  0  0  0  0  0  0  0  0
   10.1513   -0.6907    0.0000 H   0  0  0  0  0  0  0  0  0  0  0  0
   10.6883   -2.0007    0.0000 H   0  0  0  0  0  0  0  0  0  0  0  0
    9.4932   -3.6907    0.0000 H   0  0  0  0  0  0  0  0  0  0  0  0
    8.3456   -4.2730    0.0000 H   0  0  0  0  0  0  0  0  0  0  0  0
    8.7442   -4.9633    0.0000 H   0  0  0  0  0  0  0  0  0  0  0  0
   11.7664   -0.4633    0.0000 H   0  0  0  0  0  0  0  0  0  0  0  0
   12.1649    0.2270    0.0000 H   0  0  0  0  0  0  0  0  0  0  0  0
    6.3582   -3.5007    0.0000 H   0  0  0  0  0  0  0  0  0  0  0  0
    5.2801   -2.7981    0.0000 H   0  0  0  0  0  0  0  0  0  0  0  0
    4.8815   -3.4884    0.0000 H   0  0  0  0  0  0  0  0  0  0  0  0
   10.3592   -5.1907    0.0000 H   0  0  0  0  0  0  0  0  0  0  0  0
    4.9552   -4.0707    0.0000 H   0  0  0  0  0  0  0  0  0  0  0  0
   10.1323    0.6562    0.0000 H   0  0  0  0  0  0  0  0  0  0  0  0
    9.2853    0.4293    0.0000 H   0  0  0  0  0  0  0  0  0  0  0  0
    9.5122   -0.4176    0.0000 H   0  0  0  0  0  0  0  0  0  0  0  0
    7.2242   -4.0007    0.0000 H   0  0  0  0  0  0  0  0  0  0  0  0
   12.1743    1.1193    0.0000 H   0  0  0  0  0  0  0  0  0  0  0  0
   11.5543    1.7393    0.0000 H   0  0  0  0  0  0  0  0  0  0  0  0
   10.9343    1.1193    0.0000 H   0  0  0  0  0  0  0  0  0  0  0  0
    9.2022   -5.8807    0.0000 H   0  0  0  0  0  0  0  0  0  0  0  0
    9.8222   -6.5007    0.0000 H   0  0  0  0  0  0  0  0  0  0  0  0
   10.4423   -5.8807    0.0000 H   0  0  0  0  0  0  0  0  0  0  0  0
   10.9983   -4.9176    0.0000 H   0  0  0  0  0  0  0  0  0  0  0  0
   11.2252   -4.0707    0.0000 H   0  0  0  0  0  0  0  0  0  0  0  0
   10.3783   -3.8438    0.0000 H   0  0  0  0  0  0  0  0  0  0  0  0
   12.7303   -1.9176    0.0000 H   0  0  0  0  0  0  0  0  0  0  0  0
   12.9573   -1.0707    0.0000 H   0  0  0  0  0  0  0  0  0  0  0  0
   12.1103   -0.8438    0.0000 H   0  0  0  0  0  0  0  0  0  0  0  0
   10.9343   -2.8807    0.0000 H   0  0  0  0  0  0  0  0  0  0  0  0
   11.5543   -3.5007    0.0000 H   0  0  0  0  0  0  0  0  0  0  0  0
   12.1743   -2.8807    0.0000 H   0  0  0  0  0  0  0  0  0  0  0  0
    4.3161   -4.3438    0.0000 H   0  0  0  0  0  0  0  0  0  0  0  0
    4.0892   -5.1907    0.0000 H   0  0  0  0  0  0  0  0  0  0  0  0
    4.9361   -5.4176    0.0000 H   0  0  0  0  0  0  0  0  0  0  0  0
    6.0482   -5.4176    0.0000 H   0  0  0  0  0  0  0  0  0  0  0  0
    6.8951   -5.1907    0.0000 H   0  0  0  0  0  0  0  0  0  0  0  0
    6.6682   -4.3438    0.0000 H   0  0  0  0  0  0  0  0  0  0  0  0
    4.9552   -1.6907    0.0000 H   0  0  0  0  0  0  0  0  0  0  0  0
    4.9552   -0.6907    0.0000 H   0  0  0  0  0  0  0  0  0  0  0  0
    6.6682   -0.4176    0.0000 H   0  0  0  0  0  0  0  0  0  0  0  0
    6.8951    0.4293    0.0000 H   0  0  0  0  0  0  0  0  0  0  0  0
    6.0482    0.6562    0.0000 H   0  0  0  0  0  0  0  0  0  0  0  0
    4.0892   -0.1907    0.0000 H   0  0  0  0  0  0  0  0  0  0  0  0
    2.8541    2.5947    0.0000 H   0  0  0  0  0  0  0  0  0  0  0  0
    5.1630    1.4293    0.0000 H   0  0  0  0  0  0  0  0  0  0  0  0
    1.8084    3.4877    0.0000 H   0  0  0  0  0  0  0  0  0  0  0  0
    1.4103    2.7065    0.0000 H   0  0  0  0  0  0  0  0  0  0  0  0
    2.1916    2.3084    0.0000 H   0  0  0  0  0  0  0  0  0  0  0  0
    4.6245    4.6597    0.0000 H   0  0  0  0  0  0  0  0  0  0  0  0
    3.6454    5.6285    0.0000 H   0  0  0  0  0  0  0  0  0  0  0  0
    3.3312    6.4471    0.0000 H   0  0  0  0  0  0  0  0  0  0  0  0
    2.5126    6.1329    0.0000 H   0  0  0  0  0  0  0  0  0  0  0  0
 14  1  1  1  0  0  0
  1 20  1  0  0  0  0
  2 20  2  0  0  0  0
  3 23  2  0  0  0  0
  4 25  2  0  0  0  0
  5 37  1  0  0  0  0
  5 42  1  0  0  0  0
  6 38  2  0  0  0  0
  7 39  2  0  0  0  0
 13  8  1  6  0  0  0
  8 28  1  0  0  0  0
  8 29  1  0  0  0  0
 17  9  1  1  0  0  0
  9 23  1  0  0  0  0
  9 58  1  0  0  0  0
 10 25  1  0  0  0  0
 32 10  1  6  0  0  0
 10 80  1  0  0  0  0
 11 35  1  0  0  0  0
 11 38  1  0  0  0  0
 11 39  1  0  0  0  0
 12 13  1  0  0  0  0
 12 16  1  0  0  0  0
 12 22  1  1  0  0  0
 12 43  1  0  0  0  0
 13 20  1  0  0  0  0
 13 44  1  0  0  0  0
 14 15  1  0  0  0  0
 14 23  1  0  0  0  0
 14 45  1  0  0  0  0
 15 19  1  0  0  0  0
 15 46  1  0  0  0  0
 15 47  1  0  0  0  0
 16 24  1  0  0  0  0
 16 48  1  0  0  0  0
 16 49  1  0  0  0  0
 17 18  1  0  0  0  0
 17 25  1  0  0  0  0
 17 50  1  0  0  0  0
 18 21  1  0  0  0  0
 18 51  1  0  0  0  0
 18 52  1  0  0  0  0
 19 26  1  0  0  0  0
 19 27  1  0  0  0  0
 19 53  1  0  0  0  0
 21 30  1  0  0  0  0
 21 31  1  0  0  0  0
 21 54  1  0  0  0  0
 22 55  1  0  0  0  0
 22 56  1  0  0  0  0
 22 57  1  0  0  0  0
 24 59  1  0  0  0  0
 24 60  1  0  0  0  0
 24 61  1  0  0  0  0
 26 62  1  0  0  0  0
 26 63  1  0  0  0  0
 26 64  1  0  0  0  0
 27 65  1  0  0  0  0
 27 66  1  0  0  0  0
 27 67  1  0  0  0  0
 28 68  1  0  0  0  0
 28 69  1  0  0  0  0
 28 70  1  0  0  0  0
 29 71  1  0  0  0  0
 29 72  1  0  0  0  0
 29 73  1  0  0  0  0
 30 74  1  0  0  0  0
 30 75  1  0  0  0  0
 30 76  1  0  0  0  0
 31 77  1  0  0  0  0
 31 78  1  0  0  0  0
 31 79  1  0  0  0  0
 32 33  1  0  0  0  0
 32 34  1  0  0  0  0
 32 81  1  0  0  0  0
 33 82  1  0  0  0  0
 33 83  1  0  0  0  0
 33 84  1  0  0  0  0
 34 36  2  0  0  0  0
 34 85  1  0  0  0  0
 35 37  1  0  0  0  0
 35 40  1  1  0  0  0
 35 86  1  0  0  0  0
 36 38  1  0  0  0  0
 36 87  1  0  0  0  0
 37 41  2  0  0  0  0
 39 41  1  0  0  0  0
 40 88  1  0  0  0  0
 40 89  1  0  0  0  0
 40 90  1  0  0  0  0
 41 91  1  0  0  0  0
 42 92  1  0  0  0  0
 42 93  1  0  0  0  0
 42 94  1  0  0  0  0
M  END
> <PUBCHEM_COMPOUND_CID>
25209862

> <PUBCHEM_COMPOUND_CANONICALIZED>
1

> <PUBCHEM_CACTVS_COMPLEXITY>
1020

> <PUBCHEM_CACTVS_HBOND_ACCEPTOR>
8

> <PUBCHEM_CACTVS_HBOND_DONOR>
2

> <PUBCHEM_CACTVS_ROTATABLE_BOND>
17

> <PUBCHEM_CACTVS_SUBSKEYS>
AAADcfB7uAAAAAAAAAAAAAAAAAAAAQAAAAAAAAAAAAAAAAAAAAAAHgAQAAAADTzhgAYCCAPABACIACHSGAKACAAgIAAICIHIAEgCQBIAgSQXAAAEFiCYAYKYAAAOAAAAAAAAAAAAAAAAAAAAAAAAAAAAAA==

> <PUBCHEM_IUPAC_OPENEYE_NAME>
[(1S)-1-[[(1S)-1-[[(E,1S)-4-[(2S)-3-methoxy-2-methyl-5-oxo-2H-pyrrol-1-yl]-1-methyl-4-oxo-but-2-enyl]carbamoyl]-3-methyl-butyl]carbamoyl]-3-methyl-butyl] (2S,3S)-2-(dimethylamino)-3-methyl-pentanoate

> <PUBCHEM_IUPAC_CAS_NAME>
(2S,3S)-2-(dimethylamino)-3-methylpentanoic acid [(2S)-1-[[(2S)-1-[[(E,2S)-5-[(2S)-3-methoxy-2-methyl-5-oxo-2H-pyrrol-1-yl]-5-oxopent-3-en-2-yl]amino]-4-methyl-1-oxopentan-2-yl]amino]-4-methyl-1-oxopentan-2-yl] ester

> <PUBCHEM_IUPAC_NAME_MARKUP>
[(2<I>S</I>)-1-[[(2<I>S</I>)-1-[[(<I>E</I>,2<I>S</I>)-5-[(2<I>S</I>)-3-methoxy-2-methyl-5-oxo-2<I>H</I>-pyrrol-1-yl]-5-oxopent-3-en-2-yl]amino]-4-methyl-1-oxopentan-2-yl]amino]-4-methyl-1-oxopentan-2-yl] (2<I>S</I>,3<I>S</I>)-2-(dimethylamino)-3-methylpentanoate

> <PUBCHEM_IUPAC_NAME>
[(2S)-1-[[(2S)-1-[[(E,2S)-5-[(2S)-3-methoxy-2-methyl-5-oxo-2H-pyrrol-1-yl]-5-oxopent-3-en-2-yl]amino]-4-methyl-1-oxopentan-2-yl]amino]-4-methyl-1-oxopentan-2-yl] (2S,3S)-2-(dimethylamino)-3-methylpentanoate

> <PUBCHEM_IUPAC_SYSTEMATIC_NAME>
[(2S)-1-[[(2S)-1-[[(E,2S)-5-[(2S)-3-methoxy-2-methyl-5-oxidanylidene-2H-pyrrol-1-yl]-5-oxidanylidene-pent-3-en-2-yl]amino]-4-methyl-1-oxidanylidene-pentan-2-yl]amino]-4-methyl-1-oxidanylidene-pentan-2-yl] (2S,3S)-2-(dimethylamino)-3-methyl-pentanoate

> <PUBCHEM_IUPAC_TRADITIONAL_NAME>
(2S,3S)-2-(dimethylamino)-3-methyl-valeric acid [(1S)-1-[[(1S)-1-[[(E,1S)-4-keto-4-[(2S)-5-keto-3-methoxy-2-methyl-3-pyrrolin-1-yl]-1-methyl-but-2-enyl]carbamoyl]-3-methyl-butyl]carbamoyl]-3-methyl-butyl] ester

> <PUBCHEM_IUPAC_INCHI>
InChI=1S/C31H52N4O7/c1-12-20(6)28(34(9)10)31(40)42-25(16-19(4)5)30(39)33-23(15-18(2)3)29(38)32-21(7)13-14-26(36)35-22(8)24(41-11)17-27(35)37/h13-14,17-23,25,28H,12,15-16H2,1-11H3,(H,32,38)(H,33,39)/b14-13+/t20-,21-,22-,23-,25-,28-/m0/s1

> <PUBCHEM_IUPAC_INCHIKEY>
ASRBKZHDORPEHO-KYJIWOQOSA-N

> <PUBCHEM_XLOGP3_AA>
4.2

> <PUBCHEM_EXACT_MASS>
592.38360001

> <PUBCHEM_MOLECULAR_FORMULA>
C31H52N4O7

> <PUBCHEM_MOLECULAR_WEIGHT>
592.8

> <PUBCHEM_OPENEYE_CAN_SMILES>
CCC(C)C(C(=O)OC(CC(C)C)C(=O)NC(CC(C)C)C(=O)NC(C)C=CC(=O)N1C(C(=CC1=O)OC)C)N(C)C

> <PUBCHEM_OPENEYE_ISO_SMILES>
CC[C@H](C)[C@@H](C(=O)O[C@@H](CC(C)C)C(=O)N[C@@H](CC(C)C)C(=O)N[C@@H](C)/C=C/C(=O)N1[C@H](C(=CC1=O)OC)C)N(C)C

> <PUBCHEM_CACTVS_TPSA>
134

> <PUBCHEM_MONOISOTOPIC_WEIGHT>
592.38360001

> <PUBCHEM_TOTAL_CHARGE>
0

> <PUBCHEM_HEAVY_ATOM_COUNT>
42

> <PUBCHEM_ATOM_DEF_STEREO_COUNT>
6

> <PUBCHEM_ATOM_UDEF_STEREO_COUNT>
0

> <PUBCHEM_BOND_DEF_STEREO_COUNT>
1

> <PUBCHEM_BOND_UDEF_STEREO_COUNT>
0

> <PUBCHEM_ISOTOPIC_ATOM_COUNT>
0

> <PUBCHEM_COMPONENT_COUNT>
1

> <PUBCHEM_CACTVS_TAUTO_COUNT>
-1

> <PUBCHEM_COORDINATE_TYPE>
1
5
255

> <PUBCHEM_BONDANNOTATIONS>
14  1  5
32  10  6
12  22  5
35  40  5
13  8  6
17  9  5

$$$$
