Tetra-O-galloyl-beta-d-glucose
  -OEChem-07172408272D

 64 67  0     1  0  0  0  0  0999 V2000
   -0.6048    0.4000    0.0000 O   0  0  0  0  0  0  0  0  0  0  0  0
   -0.3183   -0.1331    0.0000 O   0  0  0  0  0  0  0  0  0  0  0  0
    0.1538    0.6668    0.0000 O   0  0  0  0  0  0  0  0  0  0  0  0
    0.2971    0.4000    0.0000 O   0  0  0  0  0  0  0  0  0  0  0  0
    0.6053   -0.1331    0.0000 O   0  0  0  0  0  0  0  0  0  0  0  0
   -0.6048    0.9336    0.0000 O   0  0  0  0  0  0  0  0  0  0  0  0
   -0.6048   -0.1331    0.0000 O   0  0  0  0  0  0  0  0  0  0  0  0
    0.1538   -0.4000    0.0000 O   0  0  0  0  0  0  0  0  0  0  0  0
    0.1538    1.2004    0.0000 O   0  0  0  0  0  0  0  0  0  0  0  0
    0.6053   -0.6668    0.0000 O   0  0  0  0  0  0  0  0  0  0  0  0
   -1.6923    0.6668    0.0000 O   0  0  0  0  0  0  0  0  0  0  0  0
   -0.1538   -1.4668    0.0000 O   0  0  0  0  0  0  0  0  0  0  0  0
   -1.6923   -0.4000    0.0000 O   0  0  0  0  0  0  0  0  0  0  0  0
   -1.0769   -0.9331    0.0000 O   0  0  0  0  0  0  0  0  0  0  0  0
   -2.0000    0.1336    0.0000 O   0  0  0  0  0  0  0  0  0  0  0  0
   -0.7692   -1.4668    0.0000 O   0  0  0  0  0  0  0  0  0  0  0  0
    1.2206    1.4668    0.0000 O   0  0  0  0  0  0  0  0  0  0  0  0
    1.2206    0.4000    0.0000 O   0  0  0  0  0  0  0  0  0  0  0  0
    1.5283    0.9336    0.0000 O   0  0  0  0  0  0  0  0  0  0  0  0
    1.6923    0.1336    0.0000 O   0  0  0  0  0  0  0  0  0  0  0  0
    1.6923   -0.9331    0.0000 O   0  0  0  0  0  0  0  0  0  0  0  0
    2.0000   -0.4000    0.0000 O   0  0  0  0  0  0  0  0  0  0  0  0
   -0.3183    0.4000    0.0000 C   0  0  3  0  0  0  0  0  0  0  0  0
   -0.1538    0.1336    0.0000 C   0  0  3  0  0  0  0  0  0  0  0  0
   -0.1538    0.6668    0.0000 C   0  0  3  0  0  0  0  0  0  0  0  0
    0.1538    0.1336    0.0000 C   0  0  3  0  0  0  0  0  0  0  0  0
   -0.3183    0.9336    0.0000 C   0  0  0  0  0  0  0  0  0  0  0  0
    0.2971   -0.1331    0.0000 C   0  0  0  0  0  0  0  0  0  0  0  0
   -0.7692    0.1336    0.0000 C   0  0  0  0  0  0  0  0  0  0  0  0
   -0.1538   -0.4000    0.0000 C   0  0  0  0  0  0  0  0  0  0  0  0
    0.2971    0.9336    0.0000 C   0  0  0  0  0  0  0  0  0  0  0  0
   -1.0769    0.1336    0.0000 C   0  0  0  0  0  0  0  0  0  0  0  0
   -0.3183   -0.6668    0.0000 C   0  0  0  0  0  0  0  0  0  0  0  0
    0.6053    0.9336    0.0000 C   0  0  0  0  0  0  0  0  0  0  0  0
   -1.2202    0.4000    0.0000 C   0  0  0  0  0  0  0  0  0  0  0  0
   -0.1538   -0.9331    0.0000 C   0  0  0  0  0  0  0  0  0  0  0  0
   -1.2202   -0.1331    0.0000 C   0  0  0  0  0  0  0  0  0  0  0  0
   -0.6048   -0.6668    0.0000 C   0  0  0  0  0  0  0  0  0  0  0  0
    0.7692    1.2004    0.0000 C   0  0  0  0  0  0  0  0  0  0  0  0
    0.7692   -0.4000    0.0000 C   0  0  0  0  0  0  0  0  0  0  0  0
   -1.5283    0.4000    0.0000 C   0  0  0  0  0  0  0  0  0  0  0  0
   -0.3183   -1.2000    0.0000 C   0  0  0  0  0  0  0  0  0  0  0  0
    0.7692    0.6668    0.0000 C   0  0  0  0  0  0  0  0  0  0  0  0
   -1.5283   -0.1331    0.0000 C   0  0  0  0  0  0  0  0  0  0  0  0
   -0.7692   -0.9331    0.0000 C   0  0  0  0  0  0  0  0  0  0  0  0
   -1.6923    0.1336    0.0000 C   0  0  0  0  0  0  0  0  0  0  0  0
   -0.6048   -1.2000    0.0000 C   0  0  0  0  0  0  0  0  0  0  0  0
    1.0769    1.2004    0.0000 C   0  0  0  0  0  0  0  0  0  0  0  0
    1.0769   -0.4000    0.0000 C   0  0  0  0  0  0  0  0  0  0  0  0
    1.0769    0.6668    0.0000 C   0  0  0  0  0  0  0  0  0  0  0  0
    1.2206    0.9336    0.0000 C   0  0  0  0  0  0  0  0  0  0  0  0
    1.2206   -0.1331    0.0000 C   0  0  0  0  0  0  0  0  0  0  0  0
    1.2206   -0.6668    0.0000 C   0  0  0  0  0  0  0  0  0  0  0  0
    1.5283   -0.1331    0.0000 C   0  0  0  0  0  0  0  0  0  0  0  0
    1.5283   -0.6668    0.0000 C   0  0  0  0  0  0  0  0  0  0  0  0
    1.6923   -0.4000    0.0000 C   0  0  0  0  0  0  0  0  0  0  0  0
   -0.4163    0.5774    0.0000 H   0  0  0  0  0  0  0  0  0  0  0  0
   -0.0558    0.3106    0.0000 H   0  0  0  0  0  0  0  0  0  0  0  0
   -0.0558    0.8438    0.0000 H   0  0  0  0  0  0  0  0  0  0  0  0
    0.3563    0.1336    0.0000 H   0  0  0  0  0  0  0  0  0  0  0  0
   -1.0769    0.6668    0.0000 H   1  0  0  0  0  0  0  0  0  0  0  0
    0.1538   -0.9331    0.0000 H   1  0  0  0  0  0  0  0  0  0  0  0
    0.6053    1.4668    0.0000 H   1  0  0  0  0  0  0  0  0  0  0  0
    1.0769    0.1336    0.0000 H   1  0  0  0  0  0  0  0  0  0  0  0
  1 23  1  0  0  0  0
  1 29  1  0  0  0  0
  2 24  1  0  0  0  0
  2 30  1  0  0  0  0
  3 25  1  0  0  0  0
  3 31  1  0  0  0  0
  4 26  1  0  0  0  0
  5 28  1  0  0  0  0
  5 40  1  0  0  0  0
  6 27  2  0  0  0  0
  7 29  2  0  0  0  0
  8 30  2  0  0  0  0
  9 31  2  0  0  0  0
 10 40  2  0  0  0  0
 11 41  1  0  0  0  0
 12 42  1  0  0  0  0
 13 44  1  0  0  0  0
 14 45  1  0  0  0  0
 15 46  1  0  0  0  0
 16 47  1  0  0  0  0
 17 48  1  0  0  0  0
 18 50  1  0  0  0  0
 19 51  1  0  0  0  0
 20 54  1  0  0  0  0
 21 55  1  0  0  0  0
 22 56  1  0  0  0  0
 23 24  1  0  0  0  0
 23 25  1  0  0  0  0
 23 57  1  1  0  0  0
 24 26  1  0  0  0  0
 24 58  1  6  0  0  0
 25 27  1  0  0  0  0
 25 59  1  1  0  0  0
 26 28  1  0  0  0  0
 26 60  1  1  0  0  0
 29 32  1  0  0  0  0
 30 33  1  0  0  0  0
 31 34  1  0  0  0  0
 32 35  2  0  0  0  0
 32 37  1  0  0  0  0
 33 36  2  0  0  0  0
 33 38  1  0  0  0  0
 34 39  2  0  0  0  0
 34 43  1  0  0  0  0
 35 41  1  0  0  0  0
 35 61  1  0  0  0  0
 36 42  1  0  0  0  0
 36 62  1  0  0  0  0
 37 44  2  0  0  0  0
 38 45  2  0  0  0  0
 39 48  1  0  0  0  0
 39 63  1  0  0  0  0
 40 49  1  0  0  0  0
 41 46  2  0  0  0  0
 42 47  2  0  0  0  0
 43 50  2  0  0  0  0
 44 46  1  0  0  0  0
 45 47  1  0  0  0  0
 48 51  2  0  0  0  0
 49 52  2  0  0  0  0
 49 53  1  0  0  0  0
 50 51  1  0  0  0  0
 52 54  1  0  0  0  0
 52 64  1  0  0  0  0
 53 55  2  0  0  0  0
 54 56  2  0  0  0  0
 55 56  1  0  0  0  0
M  ISO  4  61   2  62   2  63   2  64   2
M  END
> <PUBCHEM_COMPOUND_ID_TYPE>
0

> <PUBCHEM_TOTAL_CHARGE>
0

> <PUBCHEM_SUBSTANCE_ID>
341411147

> <PUBCHEM_SUBSTANCE_VERSION>
1

> <PUBCHEM_EXT_DATASOURCE_NAME>
15745

> <PUBCHEM_EXT_DATASOURCE_REGID>
56083675-297900725

> <PUBCHEM_SUBSTANCE_COMMENT>
This substance has the INFOCHEM hashcode: 56083675-297900725

> <PUBCHEM_SUBSTANCE_SYNONYM>
2,3,4,6-tetra-O-galloyl-d-glucose

> <PUBCHEM_XREF_EXT_ID>
56083675-297900725

> <PUBCHEM_EXT_DATASOURCE_URL>
https://link.springer.com

> <PUBCHEM_CID_ASSOCIATIONS>
129710548  1

> <PUBCHEM_COORDINATE_TYPE>
1
3

> <PUBCHEM_BONDANNOTATIONS>
23  57  5
24  58  6
25  59  5
26  60  5

$$$$
