9,19-Cyclolanost-23-ene-3,25-diol, 3-acetate
  -OEChem-12152007022D

 87 91  0     1  0  0  0  0  0999 V2000
    3.7320   -3.4065    0.0000 O   0  0  0  0  0  0  0  0  0  0  0  0
    2.8602   -1.9099    0.0000 O   0  0  0  0  0  0  0  0  0  0  0  0
   13.2663    4.1656    0.0000 O   0  0  0  0  0  0  0  0  0  0  0  0
    7.2622   -1.3824    0.0000 C   0  0  3  0  0  0  0  0  0  0  0  0
    6.3961   -1.8824    0.0000 C   0  0  3  0  0  0  0  0  0  0  0  0
    6.3959   -0.8819    0.0000 C   0  0  0  0  0  0  0  0  0  0  0  0
    8.1282   -1.8824    0.0000 C   0  0  3  0  0  0  0  0  0  0  0  0
    6.3961   -2.8824    0.0000 C   0  0  3  0  0  0  0  0  0  0  0  0
    9.0382   -1.3755    0.0000 C   0  0  3  0  0  0  0  0  0  0  0  0
    7.2461   -0.3409    0.0000 C   0  0  0  0  0  0  0  0  0  0  0  0
    9.0462   -0.3339    0.0000 C   0  0  3  0  0  0  0  0  0  0  0  0
    5.5022   -1.3477    0.0000 C   0  0  0  0  0  0  0  0  0  0  0  0
    8.1282   -2.8824    0.0000 C   0  0  0  0  0  0  0  0  0  0  0  0
    7.2622   -3.3824    0.0000 C   0  0  0  0  0  0  0  0  0  0  0  0
    8.1441    0.1869    0.0000 C   0  0  0  0  0  0  0  0  0  0  0  0
    5.5022   -3.4170    0.0000 C   0  0  0  0  0  0  0  0  0  0  0  0
   10.0342   -0.0241    0.0000 C   0  0  3  0  0  0  0  0  0  0  0  0
   10.0213   -1.7005    0.0000 C   0  0  0  0  0  0  0  0  0  0  0  0
    4.5961   -1.8616    0.0000 C   0  0  0  0  0  0  0  0  0  0  0  0
    4.5961   -2.9032    0.0000 C   0  0  3  0  0  0  0  0  0  0  0  0
   10.6357   -0.8670    0.0000 C   0  0  0  0  0  0  0  0  0  0  0  0
    9.0305   -2.3755    0.0000 C   0  0  0  0  0  0  0  0  0  0  0  0
    9.0539    0.6660    0.0000 C   0  0  0  0  0  0  0  0  0  0  0  0
    5.0122   -4.2888    0.0000 C   0  0  0  0  0  0  0  0  0  0  0  0
    6.0122   -4.2772    0.0000 C   0  0  0  0  0  0  0  0  0  0  0  0
   10.3522    0.9240    0.0000 C   0  0  3  0  0  0  0  0  0  0  0  0
   11.3323    1.1226    0.0000 C   0  0  0  0  0  0  0  0  0  0  0  0
    9.6901    1.6734    0.0000 C   0  0  0  0  0  0  0  0  0  0  0  0
    2.8641   -2.9099    0.0000 C   0  0  0  0  0  0  0  0  0  0  0  0
   11.6503    2.0708    0.0000 C   0  0  0  0  0  0  0  0  0  0  0  0
    2.0000   -3.4132    0.0000 C   0  0  0  0  0  0  0  0  0  0  0  0
   12.6303    2.2694    0.0000 C   0  0  0  0  0  0  0  0  0  0  0  0
   12.9483    3.2175    0.0000 C   0  0  0  0  0  0  0  0  0  0  0  0
   13.8964    2.8995    0.0000 C   0  0  0  0  0  0  0  0  0  0  0  0
   12.0002    3.5355    0.0000 C   0  0  0  0  0  0  0  0  0  0  0  0
    6.6080   -0.2993    0.0000 H   0  0  0  0  0  0  0  0  0  0  0  0
    5.7853   -0.7743    0.0000 H   0  0  0  0  0  0  0  0  0  0  0  0
    8.6627   -2.1965    0.0000 H   0  0  0  0  0  0  0  0  0  0  0  0
    6.4009   -3.5024    0.0000 H   0  0  0  0  0  0  0  0  0  0  0  0
    7.0281    0.2395    0.0000 H   0  0  0  0  0  0  0  0  0  0  0  0
    6.6370   -0.4564    0.0000 H   0  0  0  0  0  0  0  0  0  0  0  0
    5.9068   -0.8779    0.0000 H   0  0  0  0  0  0  0  0  0  0  0  0
    5.1086   -0.8687    0.0000 H   0  0  0  0  0  0  0  0  0  0  0  0
    8.3402   -3.4650    0.0000 H   0  0  0  0  0  0  0  0  0  0  0  0
    8.7388   -2.7747    0.0000 H   0  0  0  0  0  0  0  0  0  0  0  0
    6.8636   -3.8573    0.0000 H   0  0  0  0  0  0  0  0  0  0  0  0
    7.6607   -3.8573    0.0000 H   0  0  0  0  0  0  0  0  0  0  0  0
    8.5414    0.6629    0.0000 H   0  0  0  0  0  0  0  0  0  0  0  0
    7.7432    0.6598    0.0000 H   0  0  0  0  0  0  0  0  0  0  0  0
   10.6475    0.0674    0.0000 H   0  0  0  0  0  0  0  0  0  0  0  0
    9.7659   -2.2655    0.0000 H   0  0  0  0  0  0  0  0  0  0  0  0
   10.5563   -2.0139    0.0000 H   0  0  0  0  0  0  0  0  0  0  0  0
    4.3871   -1.2779    0.0000 H   0  0  0  0  0  0  0  0  0  0  0  0
    3.9853   -1.9676    0.0000 H   0  0  0  0  0  0  0  0  0  0  0  0
    4.5997   -3.5232    0.0000 H   0  0  0  0  0  0  0  0  0  0  0  0
   11.0933   -1.2853    0.0000 H   0  0  0  0  0  0  0  0  0  0  0  0
   11.0997   -0.4558    0.0000 H   0  0  0  0  0  0  0  0  0  0  0  0
    8.4105   -2.3707    0.0000 H   0  0  0  0  0  0  0  0  0  0  0  0
    9.0257   -2.9955    0.0000 H   0  0  0  0  0  0  0  0  0  0  0  0
    9.6505   -2.3803    0.0000 H   0  0  0  0  0  0  0  0  0  0  0  0
    9.6739    0.6613    0.0000 H   0  0  0  0  0  0  0  0  0  0  0  0
    9.0587    1.2860    0.0000 H   0  0  0  0  0  0  0  0  0  0  0  0
    8.4340    0.6708    0.0000 H   0  0  0  0  0  0  0  0  0  0  0  0
    4.4718   -3.9850    0.0000 H   0  0  0  0  0  0  0  0  0  0  0  0
    4.7085   -4.8293    0.0000 H   0  0  0  0  0  0  0  0  0  0  0  0
    5.5527   -4.5926    0.0000 H   0  0  0  0  0  0  0  0  0  0  0  0
    5.4789   -4.5934    0.0000 H   0  0  0  0  0  0  0  0  0  0  0  0
    6.3284   -4.8105    0.0000 H   0  0  0  0  0  0  0  0  0  0  0  0
    6.5455   -3.9610    0.0000 H   0  0  0  0  0  0  0  0  0  0  0  0
    9.7446    0.8008    0.0000 H   0  0  0  0  0  0  0  0  0  0  0  0
   11.3481    0.5028    0.0000 H   0  0  0  0  0  0  0  0  0  0  0  0
   11.9454    1.0306    0.0000 H   0  0  0  0  0  0  0  0  0  0  0  0
   10.1548    2.0839    0.0000 H   0  0  0  0  0  0  0  0  0  0  0  0
    9.2796    2.1380    0.0000 H   0  0  0  0  0  0  0  0  0  0  0  0
    9.2255    1.2629    0.0000 H   0  0  0  0  0  0  0  0  0  0  0  0
   11.2398    2.5354    0.0000 H   0  0  0  0  0  0  0  0  0  0  0  0
    1.6879   -2.8775    0.0000 H   0  0  0  0  0  0  0  0  0  0  0  0
    1.4643   -3.7253    0.0000 H   0  0  0  0  0  0  0  0  0  0  0  0
    2.3121   -3.9489    0.0000 H   0  0  0  0  0  0  0  0  0  0  0  0
   13.0408    1.8048    0.0000 H   0  0  0  0  0  0  0  0  0  0  0  0
   13.6993    2.3117    0.0000 H   0  0  0  0  0  0  0  0  0  0  0  0
   14.4842    2.7024    0.0000 H   0  0  0  0  0  0  0  0  0  0  0  0
   14.0936    3.4874    0.0000 H   0  0  0  0  0  0  0  0  0  0  0  0
   12.1974    4.1233    0.0000 H   0  0  0  0  0  0  0  0  0  0  0  0
   11.4124    3.7326    0.0000 H   0  0  0  0  0  0  0  0  0  0  0  0
   11.8031    2.9477    0.0000 H   0  0  0  0  0  0  0  0  0  0  0  0
   13.8739    4.2888    0.0000 H   0  0  0  0  0  0  0  0  0  0  0  0
  1 20  1  0  0  0  0
  1 29  1  0  0  0  0
  2 29  2  0  0  0  0
  3 33  1  0  0  0  0
  3 87  1  0  0  0  0
  4  5  1  0  0  0  0
  4  6  1  0  0  0  0
  4  7  1  0  0  0  0
  4 10  1  0  0  0  0
  5  6  1  0  0  0  0
  5  8  1  0  0  0  0
  5 12  1  0  0  0  0
  6 36  1  0  0  0  0
  6 37  1  0  0  0  0
  7  9  1  0  0  0  0
  7 13  1  0  0  0  0
  7 38  1  0  0  0  0
  8 14  1  0  0  0  0
  8 16  1  0  0  0  0
  8 39  1  0  0  0  0
  9 11  1  0  0  0  0
  9 18  1  0  0  0  0
  9 22  1  0  0  0  0
 10 15  1  0  0  0  0
 10 40  1  0  0  0  0
 10 41  1  0  0  0  0
 11 15  1  0  0  0  0
 11 17  1  0  0  0  0
 11 23  1  0  0  0  0
 12 19  1  0  0  0  0
 12 42  1  0  0  0  0
 12 43  1  0  0  0  0
 13 14  1  0  0  0  0
 13 44  1  0  0  0  0
 13 45  1  0  0  0  0
 14 46  1  0  0  0  0
 14 47  1  0  0  0  0
 15 48  1  0  0  0  0
 15 49  1  0  0  0  0
 16 20  1  0  0  0  0
 16 24  1  0  0  0  0
 16 25  1  0  0  0  0
 17 21  1  0  0  0  0
 17 26  1  0  0  0  0
 17 50  1  0  0  0  0
 18 21  1  0  0  0  0
 18 51  1  0  0  0  0
 18 52  1  0  0  0  0
 19 20  1  0  0  0  0
 19 53  1  0  0  0  0
 19 54  1  0  0  0  0
 20 55  1  0  0  0  0
 21 56  1  0  0  0  0
 21 57  1  0  0  0  0
 22 58  1  0  0  0  0
 22 59  1  0  0  0  0
 22 60  1  0  0  0  0
 23 61  1  0  0  0  0
 23 62  1  0  0  0  0
 23 63  1  0  0  0  0
 24 64  1  0  0  0  0
 24 65  1  0  0  0  0
 24 66  1  0  0  0  0
 25 67  1  0  0  0  0
 25 68  1  0  0  0  0
 25 69  1  0  0  0  0
 26 27  1  0  0  0  0
 26 28  1  0  0  0  0
 26 70  1  0  0  0  0
 27 30  1  0  0  0  0
 27 71  1  0  0  0  0
 27 72  1  0  0  0  0
 28 73  1  0  0  0  0
 28 74  1  0  0  0  0
 28 75  1  0  0  0  0
 29 31  1  0  0  0  0
 30 32  2  0  0  0  0
 30 76  1  0  0  0  0
 31 77  1  0  0  0  0
 31 78  1  0  0  0  0
 31 79  1  0  0  0  0
 32 33  1  0  0  0  0
 32 80  1  0  0  0  0
 33 34  1  0  0  0  0
 33 35  1  0  0  0  0
 34 81  1  0  0  0  0
 34 82  1  0  0  0  0
 34 83  1  0  0  0  0
 35 84  1  0  0  0  0
 35 85  1  0  0  0  0
 35 86  1  0  0  0  0
M  END
> <PUBCHEM_COMPOUND_CID>
5363281

> <PUBCHEM_COMPOUND_CANONICALIZED>
1

> <PUBCHEM_CACTVS_COMPLEXITY>
903

> <PUBCHEM_CACTVS_HBOND_ACCEPTOR>
3

> <PUBCHEM_CACTVS_HBOND_DONOR>
1

> <PUBCHEM_CACTVS_ROTATABLE_BOND>
6

> <PUBCHEM_CACTVS_SUBSKEYS>
AAADcfB8MAAAAAAAAAAAAAAAGAAAAYAAAAAwYMAABgAAAGDAAAAAGgAACAAAD1SggAICCAAABgCIACDSCAAAAAAgAAAICAAAAAgABAIAAQACEAAEgAAIEAOAwPAPgAAAAAAAAADAAAYAADAAAQAACAAAAA==

> <PUBCHEM_IUPAC_OPENEYE_NAME>
[15-[(E)-5-hydroxy-1,5-dimethyl-hex-3-enyl]-7,7,12,16-tetramethyl-6-pentacyclo[9.7.0.01,3.03,8.012,16]octadecanyl] acetate

> <PUBCHEM_IUPAC_CAS_NAME>
acetic acid [15-[(E)-6-hydroxy-6-methylhept-4-en-2-yl]-7,7,12,16-tetramethyl-6-pentacyclo[9.7.0.01,3.03,8.012,16]octadecanyl] ester

> <PUBCHEM_IUPAC_NAME_MARKUP>
[15-[(<I>E</I>)-6-hydroxy-6-methylhept-4-en-2-yl]-7,7,12,16-tetramethyl-6-pentacyclo[9.7.0.0<SUP>1,3</SUP>.0<SUP>3,8</SUP>.0<SUP>12,16</SUP>]octadecanyl] acetate

> <PUBCHEM_IUPAC_NAME>
[15-[(E)-6-hydroxy-6-methylhept-4-en-2-yl]-7,7,12,16-tetramethyl-6-pentacyclo[9.7.0.01,3.03,8.012,16]octadecanyl] acetate

> <PUBCHEM_IUPAC_SYSTEMATIC_NAME>
[7,7,12,16-tetramethyl-15-[(E)-6-methyl-6-oxidanyl-hept-4-en-2-yl]-6-pentacyclo[9.7.0.01,3.03,8.012,16]octadecanyl] ethanoate

> <PUBCHEM_IUPAC_TRADITIONAL_NAME>
acetic acid [15-[(E)-5-hydroxy-1,5-dimethyl-hex-3-enyl]-7,7,12,16-tetramethyl-6-pentacyclo[9.7.0.01,3.03,8.012,16]octadecanyl] ester

> <PUBCHEM_IUPAC_INCHI>
InChI=1S/C32H52O3/c1-21(10-9-15-27(3,4)34)23-13-16-30(8)25-12-11-24-28(5,6)26(35-22(2)33)14-17-31(24)20-32(25,31)19-18-29(23,30)7/h9,15,21,23-26,34H,10-14,16-20H2,1-8H3/b15-9+

> <PUBCHEM_IUPAC_INCHIKEY>
PFVNANMTCLAEEE-OQLLNIDSSA-N

> <PUBCHEM_XLOGP3_AA>
8.5

> <PUBCHEM_EXACT_MASS>
484.391646

> <PUBCHEM_MOLECULAR_FORMULA>
C32H52O3

> <PUBCHEM_MOLECULAR_WEIGHT>
484.8

> <PUBCHEM_OPENEYE_CAN_SMILES>
CC(CC=CC(C)(C)O)C1CCC2(C1(CCC34C2CCC5C3(C4)CCC(C5(C)C)OC(=O)C)C)C

> <PUBCHEM_OPENEYE_ISO_SMILES>
CC(C/C=C/C(C)(C)O)C1CCC2(C1(CCC34C2CCC5C3(C4)CCC(C5(C)C)OC(=O)C)C)C

> <PUBCHEM_CACTVS_TPSA>
46.5

> <PUBCHEM_MONOISOTOPIC_WEIGHT>
484.391646

> <PUBCHEM_TOTAL_CHARGE>
0

> <PUBCHEM_HEAVY_ATOM_COUNT>
35

> <PUBCHEM_ATOM_DEF_STEREO_COUNT>
0

> <PUBCHEM_ATOM_UDEF_STEREO_COUNT>
9

> <PUBCHEM_BOND_DEF_STEREO_COUNT>
1

> <PUBCHEM_BOND_UDEF_STEREO_COUNT>
0

> <PUBCHEM_ISOTOPIC_ATOM_COUNT>
0

> <PUBCHEM_COMPONENT_COUNT>
1

> <PUBCHEM_CACTVS_TAUTO_COUNT>
-1

> <PUBCHEM_COORDINATE_TYPE>
1
5
255

> <PUBCHEM_BONDANNOTATIONS>
20  1  3
11  23  3
17  21  3
26  28  3
4  10  3
5  12  3
7  13  3
8  14  3
9  22  3

$$$$
