Annonidine-F
  -OEChem-01222105033D

 56 59  0     1  0  0  0  0  0999 V2000
   -1.9427    1.2429   -0.6418 N   0  0  0  0  0  0  0  0  0  0  0  0
    3.3751   -1.1352    1.3559 N   0  0  0  0  0  0  0  0  0  0  0  0
    1.6611    0.9995   -0.1073 C   0  0  1  0  0  0  0  0  0  0  0  0
    0.1851    0.9651   -0.0742 C   0  0  0  0  0  0  0  0  0  0  0  0
   -0.6259    0.4047    0.9521 C   0  0  0  0  0  0  0  0  0  0  0  0
    2.1380   -0.3416   -0.6820 C   0  0  0  0  0  0  0  0  0  0  0  0
   -1.9564    0.5921    0.5713 C   0  0  0  0  0  0  0  0  0  0  0  0
   -0.6531    1.4724   -1.0401 C   0  0  0  0  0  0  0  0  0  0  0  0
    2.8980   -1.2117    0.0668 C   0  0  0  0  0  0  0  0  0  0  0  0
   -3.0337    0.1597    1.3528 C   0  0  0  0  0  0  0  0  0  0  0  0
    2.2509    2.2219   -0.8179 C   0  0  0  0  0  0  0  0  0  0  0  0
   -0.3549   -0.2461    2.1721 C   0  0  0  0  0  0  0  0  0  0  0  0
    3.3302   -2.4307   -0.4598 C   0  0  0  0  0  0  0  0  0  0  0  0
    1.7839   -0.6548   -1.9754 C   0  0  0  0  0  0  0  0  0  0  0  0
   -4.4567    0.3585    0.9503 C   0  0  0  0  0  0  0  0  0  0  0  0
   -2.7406   -0.4834    2.5588 C   0  0  0  0  0  0  0  0  0  0  0  0
    2.5871    3.4136   -0.2845 C   0  0  0  0  0  0  0  0  0  0  0  0
   -1.4225   -0.6842    2.9642 C   0  0  0  0  0  0  0  0  0  0  0  0
    2.9745   -2.7625   -1.7822 C   0  0  0  0  0  0  0  0  0  0  0  0
    2.2013   -1.8646   -2.5270 C   0  0  0  0  0  0  0  0  0  0  0  0
    4.0825   -3.0818    0.5575 C   0  0  0  0  0  0  0  0  0  0  0  0
    4.0922   -2.2607    1.6616 C   0  0  0  0  0  0  0  0  0  0  0  0
   -5.0029   -0.7880    0.1353 C   0  0  0  0  0  0  0  0  0  0  0  0
    3.1586    4.5043   -1.1510 C   0  0  0  0  0  0  0  0  0  0  0  0
    2.4257    3.7907    1.1613 C   0  0  0  0  0  0  0  0  0  0  0  0
   -5.4661   -0.7616   -1.1291 C   0  0  0  0  0  0  0  0  0  0  0  0
   -5.9980   -1.9472   -1.8831 C   0  0  0  0  0  0  0  0  0  0  0  0
   -5.4906    0.5288   -1.9045 C   0  0  0  0  0  0  0  0  0  0  0  0
    2.0108    1.0524    0.9296 H   0  0  0  0  0  0  0  0  0  0  0  0
   -0.4577    1.9758   -1.9770 H   0  0  0  0  0  0  0  0  0  0  0  0
    2.4142    2.0994   -1.8887 H   0  0  0  0  0  0  0  0  0  0  0  0
   -2.7638    1.5134   -1.1648 H   0  0  0  0  0  0  0  0  0  0  0  0
    0.6645   -0.4092    2.5079 H   0  0  0  0  0  0  0  0  0  0  0  0
    1.1988    0.0150   -2.5978 H   0  0  0  0  0  0  0  0  0  0  0  0
   -5.0805    0.4541    1.8494 H   0  0  0  0  0  0  0  0  0  0  0  0
   -4.5477    1.3280    0.4561 H   0  0  0  0  0  0  0  0  0  0  0  0
   -3.5444   -0.8388    3.1998 H   0  0  0  0  0  0  0  0  0  0  0  0
    3.2242   -0.3643    1.9911 H   0  0  0  0  0  0  0  0  0  0  0  0
   -1.2193   -1.1863    3.9063 H   0  0  0  0  0  0  0  0  0  0  0  0
    3.2937   -3.7017   -2.2249 H   0  0  0  0  0  0  0  0  0  0  0  0
    1.9269   -2.1140   -3.5487 H   0  0  0  0  0  0  0  0  0  0  0  0
    4.5652   -4.0472    0.4905 H   0  0  0  0  0  0  0  0  0  0  0  0
    4.5449   -2.3772    2.6361 H   0  0  0  0  0  0  0  0  0  0  0  0
   -5.0236   -1.7468    0.6531 H   0  0  0  0  0  0  0  0  0  0  0  0
    3.2662    4.1956   -2.1961 H   0  0  0  0  0  0  0  0  0  0  0  0
    2.5082    5.3849   -1.1306 H   0  0  0  0  0  0  0  0  0  0  0  0
    4.1498    4.7951   -0.7878 H   0  0  0  0  0  0  0  0  0  0  0  0
    3.4064    3.9592    1.6179 H   0  0  0  0  0  0  0  0  0  0  0  0
    1.9068    3.0322    1.7521 H   0  0  0  0  0  0  0  0  0  0  0  0
    1.8425    4.7139    1.2463 H   0  0  0  0  0  0  0  0  0  0  0  0
   -5.9390   -2.8631   -1.2859 H   0  0  0  0  0  0  0  0  0  0  0  0
   -7.0473   -1.7911   -2.1532 H   0  0  0  0  0  0  0  0  0  0  0  0
   -5.4193   -2.1072   -2.7985 H   0  0  0  0  0  0  0  0  0  0  0  0
   -5.4854    1.4324   -1.2941 H   0  0  0  0  0  0  0  0  0  0  0  0
   -4.6413    0.5665   -2.5944 H   0  0  0  0  0  0  0  0  0  0  0  0
   -6.4083    0.5858   -2.5018 H   0  0  0  0  0  0  0  0  0  0  0  0
  1  7  1  0  0  0  0
  1  8  1  0  0  0  0
  1 32  1  0  0  0  0
  2  9  1  0  0  0  0
  2 22  1  0  0  0  0
  2 38  1  0  0  0  0
  3  4  1  0  0  0  0
  3  6  1  0  0  0  0
  3 11  1  0  0  0  0
  3 29  1  0  0  0  0
  4  5  1  0  0  0  0
  4  8  2  0  0  0  0
  5  7  1  0  0  0  0
  5 12  2  0  0  0  0
  6  9  1  0  0  0  0
  6 14  2  0  0  0  0
  7 10  2  0  0  0  0
  8 30  1  0  0  0  0
  9 13  2  0  0  0  0
 10 15  1  0  0  0  0
 10 16  1  0  0  0  0
 11 17  2  0  0  0  0
 11 31  1  0  0  0  0
 12 18  1  0  0  0  0
 12 33  1  0  0  0  0
 13 19  1  0  0  0  0
 13 21  1  0  0  0  0
 14 20  1  0  0  0  0
 14 34  1  0  0  0  0
 15 23  1  0  0  0  0
 15 35  1  0  0  0  0
 15 36  1  0  0  0  0
 16 18  2  0  0  0  0
 16 37  1  0  0  0  0
 17 24  1  0  0  0  0
 17 25  1  0  0  0  0
 18 39  1  0  0  0  0
 19 20  2  0  0  0  0
 19 40  1  0  0  0  0
 20 41  1  0  0  0  0
 21 22  2  0  0  0  0
 21 42  1  0  0  0  0
 22 43  1  0  0  0  0
 23 26  2  0  0  0  0
 23 44  1  0  0  0  0
 24 45  1  0  0  0  0
 24 46  1  0  0  0  0
 24 47  1  0  0  0  0
 25 48  1  0  0  0  0
 25 49  1  0  0  0  0
 25 50  1  0  0  0  0
 26 27  1  0  0  0  0
 26 28  1  0  0  0  0
 27 51  1  0  0  0  0
 27 52  1  0  0  0  0
 27 53  1  0  0  0  0
 28 54  1  0  0  0  0
 28 55  1  0  0  0  0
 28 56  1  0  0  0  0
M  END
> <PUBCHEM_COMPOUND_CID>
14038955

> <PUBCHEM_CONFORMER_RMSD>
0.8

> <PUBCHEM_CONFORMER_DIVERSEORDER>
1
280
135
209
302
74
300
309
121
267
184
141
308
111
136
189
23
163
293
238
75
254
179
51
116
315
234
110
281
196
139
89
298
218
274
114
93
311
125
259
260
115
249
219
50
175
206
266
173
131
227
108
195
193
230
242
30
151
284
157
90
283
169
240
307
55
222
286
237
197
119
91
282
102
117
82
217
138
158
252
247
143
276
204
207
301
277
203
149
14
35
225
251
294
61
100
105
270
224
32
289
261
264
299
76
216
221
220
229
213
81
202
52
303
272
152
256
208
159
80
262
198
103
241
67
167
236
290
128
170
246
88
181
97
77
87
190
127
148
245
70
133
83
79
43
48
188
69
199
194
171
106
268
65
101
232
244
253
40
255
263
56
180
275
304
4
94
312
142
99
147
287
137
273
182
285
200
233
269
231
58
86
146
84
212
59
243
92
57
178
120
54
176
186
22
73
39
257
64
162
192
210
44
295
201
278
164
205
168
228
314
78
25
98
62
271
172
258
226
288
130
113
235
134
279
183
223
248
187
191
104
126
124
42
132
292
144
29
122
129
38
109
265
96
185
18
45
214
153
155
118
150
313
16
291
15
9
239
53
10
140
310
211
145
156
215
177
24
3
250
166
46
49
21
174
27
17
161
36
306
305
34
5
160
85
154
95
6
297
37
19
41
123
13
26
2
296
165
107
112
47
7
68
31
71
11
28
72
8
60
12
63
66
33
20

> <PUBCHEM_MMFF94_PARTIAL_CHARGES>
39
1 0.03
10 -0.14
11 -0.29
12 -0.15
14 -0.15
15 0.28
16 -0.15
17 -0.28
18 -0.15
19 -0.15
2 0.03
20 -0.15
21 -0.15
22 -0.3
23 -0.29
24 0.14
25 0.14
26 -0.28
27 0.14
28 0.14
3 0.46
30 0.15
31 0.15
32 0.27
33 0.15
34 0.15
37 0.15
38 0.27
39 0.15
4 -0.18
40 0.15
41 0.15
42 0.15
43 0.15
44 0.15
6 -0.14
7 -0.15
8 -0.3
9 -0.15

> <PUBCHEM_EFFECTIVE_ROTOR_COUNT>
5

> <PUBCHEM_PHARMACOPHORE_FEATURES>
10
1 1 cation
1 1 donor
1 2 cation
1 2 donor
3 17 24 25 hydrophobe
3 26 27 28 hydrophobe
5 1 4 5 7 8 rings
5 2 9 13 21 22 rings
6 5 7 10 12 16 18 rings
6 6 9 13 14 19 20 rings

> <PUBCHEM_HEAVY_ATOM_COUNT>
28

> <PUBCHEM_ATOM_DEF_STEREO_COUNT>
0

> <PUBCHEM_ATOM_UDEF_STEREO_COUNT>
1

> <PUBCHEM_BOND_DEF_STEREO_COUNT>
0

> <PUBCHEM_BOND_UDEF_STEREO_COUNT>
0

> <PUBCHEM_ISOTOPIC_ATOM_COUNT>
0

> <PUBCHEM_COMPONENT_COUNT>
1

> <PUBCHEM_CACTVS_TAUTO_COUNT>
1

> <PUBCHEM_CONFORMER_ID>
00D637AB00000001

> <PUBCHEM_MMFF94_ENERGY>
52.4766

> <PUBCHEM_FEATURE_SELFOVERLAP>
50.93

> <PUBCHEM_SHAPE_FINGERPRINT>
10369192 42 10591171691873946394
10764073 3 16951945432312080488
11315621 136 18059304265352503055
11578080 2 17168434843282059980
11991303 11 17543090312707371756
12160290 23 17253176137212763052
12363563 72 18192441774907528938
12788726 201 17395886184004272332
12892183 10 15912760570908263091
13681431 1 18267889215213559408
14848178 5 17988354897953389535
15842332 3 17416435141288174337
17349148 13 17917715677856610731
1813 80 18199755747561338006
20645477 70 18337687393922189813
20775438 99 17971176256972150923
22182313 1 17459202935431471713
23559900 14 17458638851327336204
35225 105 16825897067137400184
376196 1 17680987714666516905
392239 28 15840109296426255502
394222 165 17915742174675116100
44802255 64 17104000327202218396
463206 1 18116160965160839227
57527295 17 18408895026970752213
6669772 16 18041837453888178787
81228 2 17474402270810552012

> <PUBCHEM_SHAPE_MULTIPOLES>
566.26
10.81
4.17
2.64
16.59
3.71
-0.69
-5.41
3.69
-8.26
1.22
1.24
-1.16
-0.96

> <PUBCHEM_SHAPE_SELFOVERLAP>
1237.27

> <PUBCHEM_SHAPE_VOLUME>
310.7

> <PUBCHEM_COORDINATE_TYPE>
2
5
10

$$$$
