Hirsutanonol
  -OEChem-07172408162D

 47 48  0     1  0  0  0  0  0999 V2000
    7.7331    1.7500    0.0000 O   0  0  0  0  0  0  0  0  0  0  0  0
    8.5991    0.2500    0.0000 O   0  0  0  0  0  0  0  0  0  0  0  0
    4.2690    5.7500    0.0000 O   0  0  0  0  0  0  0  0  0  0  0  0
    2.5369    4.7500    0.0000 O   0  0  0  0  0  0  0  0  0  0  0  0
    6.8671   -4.7500    0.0000 O   0  0  0  0  0  0  0  0  0  0  0  0
    8.5991   -5.7500    0.0000 O   0  0  0  0  0  0  0  0  0  0  0  0
    6.8671    1.2500    0.0000 C   0  0  1  0  0  0  0  0  0  0  0  0
    6.0010    1.7500    0.0000 C   0  0  0  0  0  0  0  0  0  0  0  0
    6.8671    0.2500    0.0000 C   0  0  0  0  0  0  0  0  0  0  0  0
    6.0010    2.7500    0.0000 C   0  0  0  0  0  0  0  0  0  0  0  0
    7.7331   -0.2500    0.0000 C   0  0  0  0  0  0  0  0  0  0  0  0
    7.7331   -1.2500    0.0000 C   0  0  0  0  0  0  0  0  0  0  0  0
    8.5991   -1.7500    0.0000 C   0  0  0  0  0  0  0  0  0  0  0  0
    5.1350    3.2500    0.0000 C   0  0  0  0  0  0  0  0  0  0  0  0
    8.5991   -2.7500    0.0000 C   0  0  0  0  0  0  0  0  0  0  0  0
    5.1350    4.2500    0.0000 C   0  0  0  0  0  0  0  0  0  0  0  0
    4.2690    2.7500    0.0000 C   0  0  0  0  0  0  0  0  0  0  0  0
    7.7331   -3.2500    0.0000 C   0  0  0  0  0  0  0  0  0  0  0  0
    9.4651   -3.2500    0.0000 C   0  0  0  0  0  0  0  0  0  0  0  0
    4.2690    4.7500    0.0000 C   0  0  0  0  0  0  0  0  0  0  0  0
    3.4030    3.2500    0.0000 C   0  0  0  0  0  0  0  0  0  0  0  0
    3.4030    4.2500    0.0000 C   0  0  0  0  0  0  0  0  0  0  0  0
    7.7331   -4.2500    0.0000 C   0  0  0  0  0  0  0  0  0  0  0  0
    9.4651   -4.2500    0.0000 C   0  0  0  0  0  0  0  0  0  0  0  0
    8.5991   -4.7500    0.0000 C   0  0  0  0  0  0  0  0  0  0  0  0
    7.4040    0.9400    0.0000 H   0  0  0  0  0  0  0  0  0  0  0  0
    5.3905    1.8577    0.0000 H   0  0  0  0  0  0  0  0  0  0  0  0
    5.7890    1.1674    0.0000 H   0  0  0  0  0  0  0  0  0  0  0  0
    6.2565    0.3577    0.0000 H   0  0  0  0  0  0  0  0  0  0  0  0
    6.6550   -0.3326    0.0000 H   0  0  0  0  0  0  0  0  0  0  0  0
    6.6116    2.6423    0.0000 H   0  0  0  0  0  0  0  0  0  0  0  0
    6.2131    3.3326    0.0000 H   0  0  0  0  0  0  0  0  0  0  0  0
    7.1225   -1.1423    0.0000 H   0  0  0  0  0  0  0  0  0  0  0  0
    7.5210   -1.8326    0.0000 H   0  0  0  0  0  0  0  0  0  0  0  0
    9.2097   -1.8577    0.0000 H   0  0  0  0  0  0  0  0  0  0  0  0
    8.8112   -1.1674    0.0000 H   0  0  0  0  0  0  0  0  0  0  0  0
    8.2700    1.4400    0.0000 H   0  0  0  0  0  0  0  0  0  0  0  0
    5.6720    4.5600    0.0000 H   0  0  0  0  0  0  0  0  0  0  0  0
    4.2690    2.1300    0.0000 H   0  0  0  0  0  0  0  0  0  0  0  0
    7.1962   -2.9400    0.0000 H   0  0  0  0  0  0  0  0  0  0  0  0
   10.0021   -2.9400    0.0000 H   0  0  0  0  0  0  0  0  0  0  0  0
    2.8660    2.9400    0.0000 H   0  0  0  0  0  0  0  0  0  0  0  0
   10.0021   -4.5600    0.0000 H   0  0  0  0  0  0  0  0  0  0  0  0
    4.8059    6.0600    0.0000 H   0  0  0  0  0  0  0  0  0  0  0  0
    2.0000    4.4400    0.0000 H   0  0  0  0  0  0  0  0  0  0  0  0
    6.3301   -4.4400    0.0000 H   0  0  0  0  0  0  0  0  0  0  0  0
    9.1360   -6.0600    0.0000 H   0  0  0  0  0  0  0  0  0  0  0  0
  7  1  1  6  0  0  0
  1 37  1  0  0  0  0
  2 11  2  0  0  0  0
  3 20  1  0  0  0  0
  3 44  1  0  0  0  0
  4 22  1  0  0  0  0
  4 45  1  0  0  0  0
  5 23  1  0  0  0  0
  5 46  1  0  0  0  0
  6 25  1  0  0  0  0
  6 47  1  0  0  0  0
  7  8  1  0  0  0  0
  7  9  1  0  0  0  0
  7 26  1  0  0  0  0
  8 10  1  0  0  0  0
  8 27  1  0  0  0  0
  8 28  1  0  0  0  0
  9 11  1  0  0  0  0
  9 29  1  0  0  0  0
  9 30  1  0  0  0  0
 10 14  1  0  0  0  0
 10 31  1  0  0  0  0
 10 32  1  0  0  0  0
 11 12  1  0  0  0  0
 12 13  1  0  0  0  0
 12 33  1  0  0  0  0
 12 34  1  0  0  0  0
 13 15  1  0  0  0  0
 13 35  1  0  0  0  0
 13 36  1  0  0  0  0
 14 16  2  0  0  0  0
 14 17  1  0  0  0  0
 15 18  2  0  0  0  0
 15 19  1  0  0  0  0
 16 20  1  0  0  0  0
 16 38  1  0  0  0  0
 17 21  2  0  0  0  0
 17 39  1  0  0  0  0
 18 23  1  0  0  0  0
 18 40  1  0  0  0  0
 19 24  2  0  0  0  0
 19 41  1  0  0  0  0
 20 22  2  0  0  0  0
 21 22  1  0  0  0  0
 21 42  1  0  0  0  0
 23 25  2  0  0  0  0
 24 25  1  0  0  0  0
 24 43  1  0  0  0  0
M  END
> <PUBCHEM_COMPOUND_CID>
9928190

> <PUBCHEM_COMPOUND_CANONICALIZED>
1

> <PUBCHEM_CACTVS_COMPLEXITY>
415

> <PUBCHEM_CACTVS_HBOND_ACCEPTOR>
6

> <PUBCHEM_CACTVS_HBOND_DONOR>
5

> <PUBCHEM_CACTVS_ROTATABLE_BOND>
8

> <PUBCHEM_CACTVS_SUBSKEYS>
AAADceB4OAAAAAAAAAAAAAAAAAAAAAAAAAAwYAAAAAAAAAABQAAAGgAACAAADBSgmAIwBoAAAgCIAqBSAAACAAAgIAAIiAEGiIgJNjaCERKAcAEk4BEJmAeIyPCOIAABAAAAQABAAAIAAACAAAAAAAAAAA==

> <PUBCHEM_IUPAC_OPENEYE_NAME>
(5S)-1,7-bis(3,4-dihydroxyphenyl)-5-hydroxy-heptan-3-one

> <PUBCHEM_IUPAC_CAS_NAME>
(5S)-1,7-bis(3,4-dihydroxyphenyl)-5-hydroxy-3-heptanone

> <PUBCHEM_IUPAC_NAME_MARKUP>
(5<I>S</I>)-1,7-bis(3,4-dihydroxyphenyl)-5-hydroxyheptan-3-one

> <PUBCHEM_IUPAC_NAME>
(5S)-1,7-bis(3,4-dihydroxyphenyl)-5-hydroxyheptan-3-one

> <PUBCHEM_IUPAC_SYSTEMATIC_NAME>
(5S)-1,7-bis[3,4-bis(oxidanyl)phenyl]-5-oxidanyl-heptan-3-one

> <PUBCHEM_IUPAC_TRADITIONAL_NAME>
(5S)-1,7-bis(3,4-dihydroxyphenyl)-5-hydroxy-heptan-3-one

> <PUBCHEM_IUPAC_INCHI>
InChI=1S/C19H22O6/c20-14(5-1-12-3-7-16(22)18(24)9-12)11-15(21)6-2-13-4-8-17(23)19(25)10-13/h3-4,7-10,14,20,22-25H,1-2,5-6,11H2/t14-/m0/s1

> <PUBCHEM_IUPAC_INCHIKEY>
MVIYWFBLVAFZID-AWEZNQCLSA-N

> <PUBCHEM_XLOGP3_AA>
2

> <PUBCHEM_EXACT_MASS>
346.14163842

> <PUBCHEM_MOLECULAR_FORMULA>
C19H22O6

> <PUBCHEM_MOLECULAR_WEIGHT>
346.4

> <PUBCHEM_OPENEYE_CAN_SMILES>
C1=CC(=C(C=C1CCC(CC(=O)CCC2=CC(=C(C=C2)O)O)O)O)O

> <PUBCHEM_OPENEYE_ISO_SMILES>
C1=CC(=C(C=C1CC[C@@H](CC(=O)CCC2=CC(=C(C=C2)O)O)O)O)O

> <PUBCHEM_CACTVS_TPSA>
118

> <PUBCHEM_MONOISOTOPIC_WEIGHT>
346.14163842

> <PUBCHEM_TOTAL_CHARGE>
0

> <PUBCHEM_HEAVY_ATOM_COUNT>
25

> <PUBCHEM_ATOM_DEF_STEREO_COUNT>
1

> <PUBCHEM_ATOM_UDEF_STEREO_COUNT>
0

> <PUBCHEM_BOND_DEF_STEREO_COUNT>
0

> <PUBCHEM_BOND_UDEF_STEREO_COUNT>
0

> <PUBCHEM_ISOTOPIC_ATOM_COUNT>
0

> <PUBCHEM_COMPONENT_COUNT>
1

> <PUBCHEM_CACTVS_TAUTO_COUNT>
998

> <PUBCHEM_COORDINATE_TYPE>
1
5
255

> <PUBCHEM_BONDANNOTATIONS>
7  1  6
14  16  8
14  17  8
15  18  8
15  19  8
16  20  8
17  21  8
18  23  8
19  24  8
20  22  8
21  22  8
23  25  8
24  25  8

$$$$
