Hydroxycryptolepine
  -OEChem-01222104513D

 31 34  0     0  0  0  0  0  0999 V2000
   -1.3102   -2.8206   -0.1537 O   0  0  0  0  0  0  0  0  0  0  0  0
   -0.4971    1.1948   -0.1745 N   0  0  0  0  0  0  0  0  0  0  0  0
    1.4386   -1.7347   -0.0688 N   0  0  0  0  0  0  0  0  0  0  0  0
    0.5340    0.2952   -0.1038 C   0  0  0  0  0  0  0  0  0  0  0  0
    0.2543   -1.0557   -0.0915 C   0  0  0  0  0  0  0  0  0  0  0  0
    1.9522    0.4480   -0.0029 C   0  0  0  0  0  0  0  0  0  0  0  0
   -1.8566    0.7753   -0.0362 C   0  0  0  0  0  0  0  0  0  0  0  0
    2.4889   -0.8474    0.0001 C   0  0  0  0  0  0  0  0  0  0  0  0
   -2.1687   -0.6130   -0.0113 C   0  0  0  0  0  0  0  0  0  0  0  0
   -1.0687   -1.6215   -0.0992 C   0  0  0  0  0  0  0  0  0  0  0  0
   -0.2542    2.6098   -0.4430 C   0  0  0  0  0  0  0  0  0  0  0  0
    2.8564    1.5286    0.1093 C   0  0  0  0  0  0  0  0  0  0  0  0
    3.8637   -1.1052    0.0757 C   0  0  0  0  0  0  0  0  0  0  0  0
   -2.9312    1.6724    0.0984 C   0  0  0  0  0  0  0  0  0  0  0  0
   -3.4885   -1.0662    0.1079 C   0  0  0  0  0  0  0  0  0  0  0  0
    4.2335    1.2847    0.1875 C   0  0  0  0  0  0  0  0  0  0  0  0
    4.7285   -0.0142    0.1656 C   0  0  0  0  0  0  0  0  0  0  0  0
   -4.2485    1.2167    0.2206 C   0  0  0  0  0  0  0  0  0  0  0  0
   -4.5264   -0.1467    0.2198 C   0  0  0  0  0  0  0  0  0  0  0  0
    1.5327   -2.7411   -0.0655 H   0  0  0  0  0  0  0  0  0  0  0  0
   -1.0107    3.0392   -1.1101 H   0  0  0  0  0  0  0  0  0  0  0  0
    0.6849    2.7712   -0.9791 H   0  0  0  0  0  0  0  0  0  0  0  0
   -0.2309    3.1817    0.4905 H   0  0  0  0  0  0  0  0  0  0  0  0
    2.5102    2.5564    0.1511 H   0  0  0  0  0  0  0  0  0  0  0  0
    4.2477   -2.1202    0.0720 H   0  0  0  0  0  0  0  0  0  0  0  0
   -2.7754    2.7475    0.1260 H   0  0  0  0  0  0  0  0  0  0  0  0
   -3.7237   -2.1268    0.1226 H   0  0  0  0  0  0  0  0  0  0  0  0
    4.9212    2.1222    0.2710 H   0  0  0  0  0  0  0  0  0  0  0  0
    5.8002   -0.1835    0.2283 H   0  0  0  0  0  0  0  0  0  0  0  0
   -5.0591    1.9333    0.3209 H   0  0  0  0  0  0  0  0  0  0  0  0
   -5.5514   -0.4924    0.3156 H   0  0  0  0  0  0  0  0  0  0  0  0
  1 10  2  0  0  0  0
  2  4  1  0  0  0  0
  2  7  1  0  0  0  0
  2 11  1  0  0  0  0
  3  5  1  0  0  0  0
  3  8  1  0  0  0  0
  3 20  1  0  0  0  0
  4  5  2  0  0  0  0
  4  6  1  0  0  0  0
  5 10  1  0  0  0  0
  6  8  1  0  0  0  0
  6 12  2  0  0  0  0
  7  9  1  0  0  0  0
  7 14  2  0  0  0  0
  8 13  2  0  0  0  0
  9 10  1  0  0  0  0
  9 15  2  0  0  0  0
 11 21  1  0  0  0  0
 11 22  1  0  0  0  0
 11 23  1  0  0  0  0
 12 16  1  0  0  0  0
 12 24  1  0  0  0  0
 13 17  1  0  0  0  0
 13 25  1  0  0  0  0
 14 18  1  0  0  0  0
 14 26  1  0  0  0  0
 15 19  1  0  0  0  0
 15 27  1  0  0  0  0
 16 17  2  0  0  0  0
 16 28  1  0  0  0  0
 17 29  1  0  0  0  0
 18 19  2  0  0  0  0
 18 30  1  0  0  0  0
 19 31  1  0  0  0  0
M  END
> <PUBCHEM_COMPOUND_CID>
178034

> <PUBCHEM_CONFORMER_RMSD>
0.4

> <PUBCHEM_CONFORMER_DIVERSEORDER>
1

> <PUBCHEM_MMFF94_PARTIAL_CHARGES>
27
1 -0.57
10 0.57
11 0.37
12 -0.15
13 -0.15
14 -0.15
15 -0.15
16 -0.15
17 -0.15
18 -0.15
19 -0.15
2 -0.55
20 0.27
24 0.15
25 0.15
26 0.15
27 0.15
28 0.15
29 0.15
3 0.03
30 0.15
31 0.15
4 0.08
5 -0.24
7 0.1
8 -0.15
9 0.09

> <PUBCHEM_EFFECTIVE_ROTOR_COUNT>
0

> <PUBCHEM_PHARMACOPHORE_FEATURES>
8
1 1 acceptor
1 2 cation
1 3 cation
1 3 donor
5 3 4 5 6 8 rings
6 2 4 5 7 9 10 rings
6 6 8 12 13 16 17 rings
6 7 9 14 15 18 19 rings

> <PUBCHEM_HEAVY_ATOM_COUNT>
19

> <PUBCHEM_ATOM_DEF_STEREO_COUNT>
0

> <PUBCHEM_ATOM_UDEF_STEREO_COUNT>
0

> <PUBCHEM_BOND_DEF_STEREO_COUNT>
0

> <PUBCHEM_BOND_UDEF_STEREO_COUNT>
0

> <PUBCHEM_ISOTOPIC_ATOM_COUNT>
0

> <PUBCHEM_COMPONENT_COUNT>
1

> <PUBCHEM_CACTVS_TAUTO_COUNT>
3

> <PUBCHEM_CONFORMER_ID>
0002B77200000001

> <PUBCHEM_MMFF94_ENERGY>
58.9008

> <PUBCHEM_FEATURE_SELFOVERLAP>
40.8

> <PUBCHEM_SHAPE_FINGERPRINT>
10411042 1 17618785103304008663
10608611 8 18412542119845417560
10616163 171 18339927142079222358
10967382 1 18410575067499034036
11132069 177 18411132550143957264
11578080 2 16842749723615566171
12011746 2 18410854360832968077
12251169 10 18410291428164767752
12390115 104 18129117657363491641
12403814 3 17676202485569512197
13132413 78 18340207487431944557
13140716 1 18337666520681954850
13214271 11 18411417315292275223
13380535 76 18413671300880635470
13583140 156 16733248102063774301
138480 1 17690843354471770431
13862211 1 18410005546293460375
14790565 3 18410302397227152228
15042514 8 18265619960521109299
15196674 1 18410856559645070833
15209294 21 17988937634673047881
15309172 13 18411427180858560363
15442244 35 18410292553177174006
15536298 74 18342177752197028814
16945 1 18265902543340191903
17804303 29 18341334469533291552
1813 80 17167863062992117372
18186145 218 18270122309689965284
19591789 44 18338234869013796918
200 152 18131625691073628789
20510252 161 18271808977881124313
21029758 11 18342451569521753513
21029758 27 18187373159421087669
21267235 1 18410020939403482234
2334 1 18410294696714033861
23402539 116 18342730823715289007
23463225 33 18407760339264948676
23557571 272 18200604716814997086
23559900 14 18271806766548031462
2748010 2 18337959982833156839
335352 9 18339079272769578302
34934 24 18408598188579090410
350125 39 18265897960794963140
3545911 37 18413672426720904824
4214541 1 18411418410097504872
474 4 17386856187089491844
5104073 3 18410292505995864178
69090 78 18412542115376402895
7364860 26 18269556031580442966
77779 3 18411702084234588640
9709674 26 18341619221649540854

> <PUBCHEM_SHAPE_MULTIPOLES>
375.18
8.58
2.37
0.63
1.52
0.06
0
-1.13
-1.01
-0.49
0.19
-0.01
-0.05
0.01

> <PUBCHEM_SHAPE_SELFOVERLAP>
856.822

> <PUBCHEM_SHAPE_VOLUME>
195.9

> <PUBCHEM_COORDINATE_TYPE>
2
5
10

$$$$
