Isoiguesterinol
  -OEChem-01222105133D

 69 73  0     1  0  0  0  0  0999 V2000
   -5.1206    3.4457    1.6551 O   0  0  0  0  0  0  0  0  0  0  0  0
    6.7945    0.9891    0.8495 O   0  0  0  0  0  0  0  0  0  0  0  0
    5.3337    2.6943   -0.7697 O   0  0  0  0  0  0  0  0  0  0  0  0
   -1.6008    0.0180   -0.5106 C   0  0  1  0  0  0  0  0  0  0  0  0
   -3.1509   -0.1757   -0.8167 C   0  0  1  0  0  0  0  0  0  0  0  0
   -0.8985   -1.3843   -0.2911 C   0  0  2  0  0  0  0  0  0  0  0  0
   -3.9453   -1.1627    0.1158 C   0  0  1  0  0  0  0  0  0  0  0  0
   -1.6152   -2.0675    0.9134 C   0  0  0  0  0  0  0  0  0  0  0  0
   -3.1011   -2.3330    0.6875 C   0  0  0  0  0  0  0  0  0  0  0  0
   -0.8950    0.7147   -1.7149 C   0  0  0  0  0  0  0  0  0  0  0  0
   -3.9572    1.1316   -1.0991 C   0  0  0  0  0  0  0  0  0  0  0  0
    0.6360   -1.1780   -0.0713 C   0  0  0  0  0  0  0  0  0  0  0  0
    1.4399   -0.2908   -1.0650 C   0  0  1  0  0  0  0  0  0  0  0  0
   -4.6251   -0.4296    1.2997 C   0  0  0  0  0  0  0  0  0  0  0  0
    0.6032    0.9480   -1.4938 C   0  0  0  0  0  0  0  0  0  0  0  0
   -1.3945    0.9380    0.7213 C   0  0  0  0  0  0  0  0  0  0  0  0
   -4.8466    1.7441    0.0008 C   0  0  1  0  0  0  0  0  0  0  0  0
   -5.5446    0.7069    0.8732 C   0  0  0  0  0  0  0  0  0  0  0  0
   -1.0537   -2.3586   -1.4962 C   0  0  0  0  0  0  0  0  0  0  0  0
   -5.0732   -1.8299   -0.7313 C   0  0  0  0  0  0  0  0  0  0  0  0
    2.8062    0.1843   -0.4649 C   0  0  0  0  0  0  0  0  0  0  0  0
    1.2823   -1.7281    0.9750 C   0  0  0  0  0  0  0  0  0  0  0  0
    1.8285   -1.1096   -2.3243 C   0  0  0  0  0  0  0  0  0  0  0  0
   -4.1461    2.7966    0.8611 C   0  0  0  0  0  0  0  0  0  0  0  0
    3.4317   -0.6067    0.6088 C   0  0  0  0  0  0  0  0  0  0  0  0
    2.6830   -1.5320    1.2358 C   0  0  0  0  0  0  0  0  0  0  0  0
    3.4639    1.2676   -0.9220 C   0  0  0  0  0  0  0  0  0  0  0  0
    4.8430   -0.3808    0.9809 C   0  0  0  0  0  0  0  0  0  0  0  0
    4.8012    1.6488   -0.4108 C   0  0  0  0  0  0  0  0  0  0  0  0
    5.4881    0.7035    0.5090 C   0  0  0  0  0  0  0  0  0  0  0  0
    5.5331   -1.3639    1.8948 C   0  0  0  0  0  0  0  0  0  0  0  0
   -3.1337   -0.6674   -1.8022 H   0  0  0  0  0  0  0  0  0  0  0  0
   -1.4921   -1.4811    1.8312 H   0  0  0  0  0  0  0  0  0  0  0  0
   -1.1565   -3.0439    1.1203 H   0  0  0  0  0  0  0  0  0  0  0  0
   -3.1849   -3.2107    0.0338 H   0  0  0  0  0  0  0  0  0  0  0  0
   -3.5325   -2.6806    1.6364 H   0  0  0  0  0  0  0  0  0  0  0  0
   -1.3349    1.6992   -1.9059 H   0  0  0  0  0  0  0  0  0  0  0  0
   -1.0492    0.1503   -2.6405 H   0  0  0  0  0  0  0  0  0  0  0  0
   -3.3241    1.9155   -1.5218 H   0  0  0  0  0  0  0  0  0  0  0  0
   -4.6438    0.8805   -1.9221 H   0  0  0  0  0  0  0  0  0  0  0  0
   -3.8801   -0.0518    2.0044 H   0  0  0  0  0  0  0  0  0  0  0  0
   -5.2285   -1.1439    1.8768 H   0  0  0  0  0  0  0  0  0  0  0  0
    1.0047    1.3675   -2.4266 H   0  0  0  0  0  0  0  0  0  0  0  0
    0.7113    1.7466   -0.7474 H   0  0  0  0  0  0  0  0  0  0  0  0
   -2.0064    0.6484    1.5729 H   0  0  0  0  0  0  0  0  0  0  0  0
   -0.3634    0.9346    1.0878 H   0  0  0  0  0  0  0  0  0  0  0  0
   -1.6145    1.9785    0.4681 H   0  0  0  0  0  0  0  0  0  0  0  0
   -5.6498    2.2862   -0.5210 H   0  0  0  0  0  0  0  0  0  0  0  0
   -6.3986    0.2968    0.3210 H   0  0  0  0  0  0  0  0  0  0  0  0
   -5.9867    1.1613    1.7675 H   0  0  0  0  0  0  0  0  0  0  0  0
   -2.0870   -2.6602   -1.6804 H   0  0  0  0  0  0  0  0  0  0  0  0
   -0.7204   -1.9394   -2.4426 H   0  0  0  0  0  0  0  0  0  0  0  0
   -0.4816   -3.2792   -1.3263 H   0  0  0  0  0  0  0  0  0  0  0  0
   -5.7006   -2.4796   -0.1100 H   0  0  0  0  0  0  0  0  0  0  0  0
   -5.7270   -1.0999   -1.2167 H   0  0  0  0  0  0  0  0  0  0  0  0
   -4.6502   -2.4492   -1.5312 H   0  0  0  0  0  0  0  0  0  0  0  0
    0.7833   -2.3545    1.7046 H   0  0  0  0  0  0  0  0  0  0  0  0
    1.0187   -1.1681   -3.0543 H   0  0  0  0  0  0  0  0  0  0  0  0
    2.6662   -0.6527   -2.8665 H   0  0  0  0  0  0  0  0  0  0  0  0
    2.1318   -2.1313   -2.0671 H   0  0  0  0  0  0  0  0  0  0  0  0
   -3.6317    3.5468    0.2528 H   0  0  0  0  0  0  0  0  0  0  0  0
   -3.4358    2.3547    1.5573 H   0  0  0  0  0  0  0  0  0  0  0  0
    3.0772   -2.1503    2.0365 H   0  0  0  0  0  0  0  0  0  0  0  0
    3.0729    1.8960   -1.7139 H   0  0  0  0  0  0  0  0  0  0  0  0
   -5.7302    3.9104    1.0568 H   0  0  0  0  0  0  0  0  0  0  0  0
    5.0894   -1.3400    2.8960 H   0  0  0  0  0  0  0  0  0  0  0  0
    6.6010   -1.1539    2.0140 H   0  0  0  0  0  0  0  0  0  0  0  0
    5.4585   -2.3814    1.4952 H   0  0  0  0  0  0  0  0  0  0  0  0
    7.0432    1.8115    0.3932 H   0  0  0  0  0  0  0  0  0  0  0  0
  1 24  1  0  0  0  0
  1 65  1  0  0  0  0
  2 30  1  0  0  0  0
  2 69  1  0  0  0  0
  3 29  2  0  0  0  0
  4  5  1  0  0  0  0
  4  6  1  0  0  0  0
  4 10  1  0  0  0  0
  4 16  1  0  0  0  0
  5  7  1  0  0  0  0
  5 11  1  0  0  0  0
  5 32  1  0  0  0  0
  6  8  1  0  0  0  0
  6 12  1  0  0  0  0
  6 19  1  0  0  0  0
  7  9  1  0  0  0  0
  7 14  1  0  0  0  0
  7 20  1  0  0  0  0
  8  9  1  0  0  0  0
  8 33  1  0  0  0  0
  8 34  1  0  0  0  0
  9 35  1  0  0  0  0
  9 36  1  0  0  0  0
 10 15  1  0  0  0  0
 10 37  1  0  0  0  0
 10 38  1  0  0  0  0
 11 17  1  0  0  0  0
 11 39  1  0  0  0  0
 11 40  1  0  0  0  0
 12 13  1  0  0  0  0
 12 22  2  0  0  0  0
 13 15  1  0  0  0  0
 13 21  1  0  0  0  0
 13 23  1  0  0  0  0
 14 18  1  0  0  0  0
 14 41  1  0  0  0  0
 14 42  1  0  0  0  0
 15 43  1  0  0  0  0
 15 44  1  0  0  0  0
 16 45  1  0  0  0  0
 16 46  1  0  0  0  0
 16 47  1  0  0  0  0
 17 18  1  0  0  0  0
 17 24  1  0  0  0  0
 17 48  1  0  0  0  0
 18 49  1  0  0  0  0
 18 50  1  0  0  0  0
 19 51  1  0  0  0  0
 19 52  1  0  0  0  0
 19 53  1  0  0  0  0
 20 54  1  0  0  0  0
 20 55  1  0  0  0  0
 20 56  1  0  0  0  0
 21 25  1  0  0  0  0
 21 27  2  0  0  0  0
 22 26  1  0  0  0  0
 22 57  1  0  0  0  0
 23 58  1  0  0  0  0
 23 59  1  0  0  0  0
 23 60  1  0  0  0  0
 24 61  1  0  0  0  0
 24 62  1  0  0  0  0
 25 26  2  0  0  0  0
 25 28  1  0  0  0  0
 26 63  1  0  0  0  0
 27 29  1  0  0  0  0
 27 64  1  0  0  0  0
 28 30  2  0  0  0  0
 28 31  1  0  0  0  0
 29 30  1  0  0  0  0
 31 66  1  0  0  0  0
 31 67  1  0  0  0  0
 31 68  1  0  0  0  0
M  END
> <PUBCHEM_COMPOUND_CID>
10477355

> <PUBCHEM_CONFORMER_RMSD>
0.8

> <PUBCHEM_CONFORMER_DIVERSEORDER>
1

> <PUBCHEM_MMFF94_PARTIAL_CHARGES>
20
1 -0.68
12 -0.28
13 0.28
2 -0.53
21 -0.14
22 -0.15
24 0.28
26 -0.15
27 -0.14
28 -0.14
29 0.54
3 -0.57
30 0.09
31 0.14
57 0.15
6 0.14
63 0.15
64 0.15
65 0.4
69 0.45

> <PUBCHEM_EFFECTIVE_ROTOR_COUNT>
2.6

> <PUBCHEM_PHARMACOPHORE_FEATURES>
9
1 1 acceptor
1 1 donor
1 2 donor
1 3 acceptor
6 12 13 21 22 25 26 rings
6 21 25 27 28 29 30 rings
6 4 5 6 7 8 9 rings
6 4 6 10 12 13 15 rings
6 5 7 11 14 17 18 rings

> <PUBCHEM_HEAVY_ATOM_COUNT>
31

> <PUBCHEM_ATOM_DEF_STEREO_COUNT>
6

> <PUBCHEM_ATOM_UDEF_STEREO_COUNT>
0

> <PUBCHEM_BOND_DEF_STEREO_COUNT>
0

> <PUBCHEM_BOND_UDEF_STEREO_COUNT>
0

> <PUBCHEM_ISOTOPIC_ATOM_COUNT>
0

> <PUBCHEM_COMPONENT_COUNT>
1

> <PUBCHEM_CACTVS_TAUTO_COUNT>
8

> <PUBCHEM_CONFORMER_ID>
009FDF2B00000001

> <PUBCHEM_MMFF94_ENERGY>
137.9557

> <PUBCHEM_FEATURE_SELFOVERLAP>
45.747

> <PUBCHEM_SHAPE_FINGERPRINT>
10 15 18335430071266125185
105312 117 17346597499517519407
10674148 151 18335430072004473820
10675989 125 17042888989620160545
11135609 201 17988932141620847033
11578080 2 17202500922173013143
11796584 16 11169902866974167800
12107183 9 18118958101477366298
12236239 1 18335696169637644554
12422481 6 17749385910541461804
12596602 18 18113057147051265041
12633257 1 18187638068814224744
12788726 201 17916870114544128273
12969540 114 15554448491827555733
13224815 77 18413393124992592255
13583140 156 17967801778212441671
13782708 43 14418402240814056074
13785724 45 17976251336774750098
13965767 371 17825960212916751381
14251751 18 11458433448170547105
14294032 229 17918277563480997607
14341114 176 18113613470260369386
14341114 328 18409730651312103288
14739800 52 18269265932583734968
14790565 3 18262520407039792516
14849402 71 18114183103431498828
15163728 17 17703236096546964307
15238133 3 18130783435139197152
15484559 13 12597917654081998691
15788980 27 16515399685762001895
15840311 113 18192719947566325825
17980427 23 18408605881392921997
1813 80 15213012752804261230
19377110 9 18261398866593262241
20511986 3 18188193382236776319
20739085 24 17530971267516559974
21033648 29 17632859715442785329
21756936 100 18130498704202580140
22122407 14 18337961193993381416
23522609 53 17896342284647214060
23559900 14 18056775229578842046
23569914 2 16912797247406031968
23569943 247 16879328036273394962
2838139 119 18060694009685462312
3633792 109 17677311897619651631
3680242 22 18114179692794260608
392239 28 17968090898225943248
5104073 3 18113054934979291522
7226269 152 18342455911538524361
7808743 9 18272653433229247137
7970288 3 8789724080326662505
86090 222 15214153946688446336
9849439 229 17768822970620792801
9981440 41 18342181033932475075

> <PUBCHEM_SHAPE_MULTIPOLES>
620.36
14.04
2.82
1.72
7.52
1.03
-0.3
6.49
5.62
-2.16
0.6
0.23
-0.11
-2.08

> <PUBCHEM_SHAPE_SELFOVERLAP>
1341.104

> <PUBCHEM_SHAPE_VOLUME>
336.8

> <PUBCHEM_COORDINATE_TYPE>
2
5
10

$$$$
