JBB25_0025
  -OEChem-04162408222D

 80 83  0     1  0  0  0  0  0999 V2000
    7.7331    1.7500    0.0000 O   0  0  0  0  0  0  0  0  0  0  0  0
    6.0010    2.7500    0.0000 O   0  0  0  0  0  0  0  0  0  0  0  0
    5.1350    4.2500    0.0000 O   0  0  0  0  0  0  0  0  0  0  0  0
    7.7331   -1.2500    0.0000 O   0  0  0  0  0  0  0  0  0  0  0  0
    6.0010   -0.2500    0.0000 O   0  0  0  0  0  0  0  0  0  0  0  0
    9.4651    1.7500    0.0000 O   0  0  0  0  0  0  0  0  0  0  0  0
    9.4651   -0.2500    0.0000 O   0  0  0  0  0  0  0  0  0  0  0  0
    4.2690    1.7500    0.0000 O   0  0  0  0  0  0  0  0  0  0  0  0
    2.5369    2.7500    0.0000 O   0  0  0  0  0  0  0  0  0  0  0  0
    2.5369    4.7500    0.0000 O   0  0  0  0  0  0  0  0  0  0  0  0
    6.0010   -1.2500    0.0000 O   0  0  0  0  0  0  0  0  0  0  0  0
   12.0632    6.2500    0.0000 O   0  0  0  0  0  0  0  0  0  0  0  0
   10.3312    7.2500    0.0000 O   0  0  0  0  0  0  0  0  0  0  0  0
    4.2690   -6.2500    0.0000 O   0  0  0  0  0  0  0  0  0  0  0  0
    6.0010   -7.2500    0.0000 O   0  0  0  0  0  0  0  0  0  0  0  0
    6.8671    1.2500    0.0000 C   0  0  1  0  0  0  0  0  0  0  0  0
    6.8671    0.2500    0.0000 C   0  0  2  0  0  0  0  0  0  0  0  0
    7.7331   -0.2500    0.0000 C   0  0  1  0  0  0  0  0  0  0  0  0
    8.5991    0.2500    0.0000 C   0  0  2  0  0  0  0  0  0  0  0  0
    8.5991    1.2500    0.0000 C   0  0  1  0  0  0  0  0  0  0  0  0
    5.1350    3.2500    0.0000 C   0  0  2  0  0  0  0  0  0  0  0  0
    4.2690    2.7500    0.0000 C   0  0  1  0  0  0  0  0  0  0  0  0
    3.4030    3.2500    0.0000 C   0  0  1  0  0  0  0  0  0  0  0  0
    6.0010    1.7500    0.0000 C   0  0  0  0  0  0  0  0  0  0  0  0
    3.4030    4.2500    0.0000 C   0  0  2  0  0  0  0  0  0  0  0  0
    4.2690    4.7500    0.0000 C   0  0  2  0  0  0  0  0  0  0  0  0
    4.2690    5.7500    0.0000 C   0  0  0  0  0  0  0  0  0  0  0  0
    9.4651    2.7500    0.0000 C   0  0  0  0  0  0  0  0  0  0  0  0
    6.8671   -1.7500    0.0000 C   0  0  0  0  0  0  0  0  0  0  0  0
   10.3312    3.2500    0.0000 C   0  0  0  0  0  0  0  0  0  0  0  0
   10.3312    4.2500    0.0000 C   0  0  0  0  0  0  0  0  0  0  0  0
    6.8671   -2.7500    0.0000 C   0  0  0  0  0  0  0  0  0  0  0  0
   11.1972    4.7500    0.0000 C   0  0  0  0  0  0  0  0  0  0  0  0
    9.4651    4.7500    0.0000 C   0  0  0  0  0  0  0  0  0  0  0  0
    6.0010   -3.2500    0.0000 C   0  0  0  0  0  0  0  0  0  0  0  0
   11.1972    5.7500    0.0000 C   0  0  0  0  0  0  0  0  0  0  0  0
    9.4651    5.7500    0.0000 C   0  0  0  0  0  0  0  0  0  0  0  0
    6.0010   -4.2500    0.0000 C   0  0  0  0  0  0  0  0  0  0  0  0
   10.3312    6.2500    0.0000 C   0  0  0  0  0  0  0  0  0  0  0  0
    5.1350   -4.7500    0.0000 C   0  0  0  0  0  0  0  0  0  0  0  0
    6.8671   -4.7500    0.0000 C   0  0  0  0  0  0  0  0  0  0  0  0
    5.1350   -5.7500    0.0000 C   0  0  0  0  0  0  0  0  0  0  0  0
    6.8671   -5.7500    0.0000 C   0  0  0  0  0  0  0  0  0  0  0  0
    6.0010   -6.2500    0.0000 C   0  0  0  0  0  0  0  0  0  0  0  0
    6.8671    1.8700    0.0000 H   0  0  0  0  0  0  0  0  0  0  0  0
    6.8671   -0.3700    0.0000 H   0  0  0  0  0  0  0  0  0  0  0  0
    7.1962   -0.5600    0.0000 H   0  0  0  0  0  0  0  0  0  0  0  0
    8.5991   -0.3700    0.0000 H   0  0  0  0  0  0  0  0  0  0  0  0
    8.5991    1.8700    0.0000 H   0  0  0  0  0  0  0  0  0  0  0  0
    5.1350    2.6300    0.0000 H   0  0  0  0  0  0  0  0  0  0  0  0
    3.7320    2.4400    0.0000 H   0  0  0  0  0  0  0  0  0  0  0  0
    2.8660    3.5600    0.0000 H   0  0  0  0  0  0  0  0  0  0  0  0
    5.3905    1.8577    0.0000 H   0  0  0  0  0  0  0  0  0  0  0  0
    5.7890    1.1674    0.0000 H   0  0  0  0  0  0  0  0  0  0  0  0
    3.4030    4.8700    0.0000 H   0  0  0  0  0  0  0  0  0  0  0  0
    4.8059    5.0600    0.0000 H   0  0  0  0  0  0  0  0  0  0  0  0
    4.8890    5.7500    0.0000 H   0  0  0  0  0  0  0  0  0  0  0  0
    4.2690    6.3700    0.0000 H   0  0  0  0  0  0  0  0  0  0  0  0
    3.6490    5.7500    0.0000 H   0  0  0  0  0  0  0  0  0  0  0  0
    5.4641    0.0600    0.0000 H   0  0  0  0  0  0  0  0  0  0  0  0
   10.0021    0.0600    0.0000 H   0  0  0  0  0  0  0  0  0  0  0  0
    3.7320    1.4400    0.0000 H   0  0  0  0  0  0  0  0  0  0  0  0
    2.0000    3.0600    0.0000 H   0  0  0  0  0  0  0  0  0  0  0  0
    2.5369    5.3700    0.0000 H   0  0  0  0  0  0  0  0  0  0  0  0
    9.2531    3.3326    0.0000 H   0  0  0  0  0  0  0  0  0  0  0  0
    8.8546    2.6423    0.0000 H   0  0  0  0  0  0  0  0  0  0  0  0
   10.5432    2.6674    0.0000 H   0  0  0  0  0  0  0  0  0  0  0  0
   10.9417    3.3577    0.0000 H   0  0  0  0  0  0  0  0  0  0  0  0
    7.4040   -3.0600    0.0000 H   0  0  0  0  0  0  0  0  0  0  0  0
   11.7341    4.4400    0.0000 H   0  0  0  0  0  0  0  0  0  0  0  0
    8.9282    4.4400    0.0000 H   0  0  0  0  0  0  0  0  0  0  0  0
    5.4641   -2.9400    0.0000 H   0  0  0  0  0  0  0  0  0  0  0  0
    8.9282    6.0600    0.0000 H   0  0  0  0  0  0  0  0  0  0  0  0
    4.5981   -4.4400    0.0000 H   0  0  0  0  0  0  0  0  0  0  0  0
    7.4040   -4.4400    0.0000 H   0  0  0  0  0  0  0  0  0  0  0  0
   12.6002    5.9400    0.0000 H   0  0  0  0  0  0  0  0  0  0  0  0
    9.7942    7.5600    0.0000 H   0  0  0  0  0  0  0  0  0  0  0  0
    7.4040   -6.0600    0.0000 H   0  0  0  0  0  0  0  0  0  0  0  0
    3.7320   -5.9400    0.0000 H   0  0  0  0  0  0  0  0  0  0  0  0
    6.5380   -7.5600    0.0000 H   0  0  0  0  0  0  0  0  0  0  0  0
  1 16  1  0  0  0  0
  1 20  1  0  0  0  0
 21  2  1  1  0  0  0
  2 24  1  0  0  0  0
  3 21  1  0  0  0  0
  3 26  1  0  0  0  0
 18  4  1  1  0  0  0
  4 29  1  0  0  0  0
 17  5  1  6  0  0  0
  5 60  1  0  0  0  0
 20  6  1  1  0  0  0
  6 28  1  0  0  0  0
 19  7  1  6  0  0  0
  7 61  1  0  0  0  0
 22  8  1  6  0  0  0
  8 62  1  0  0  0  0
 23  9  1  6  0  0  0
  9 63  1  0  0  0  0
 25 10  1  1  0  0  0
 10 64  1  0  0  0  0
 11 29  2  0  0  0  0
 12 36  1  0  0  0  0
 12 76  1  0  0  0  0
 13 39  1  0  0  0  0
 13 77  1  0  0  0  0
 14 42  1  0  0  0  0
 14 79  1  0  0  0  0
 15 44  1  0  0  0  0
 15 80  1  0  0  0  0
 16 17  1  0  0  0  0
 16 24  1  1  0  0  0
 16 45  1  0  0  0  0
 17 18  1  0  0  0  0
 17 46  1  0  0  0  0
 18 19  1  0  0  0  0
 18 47  1  0  0  0  0
 19 20  1  0  0  0  0
 19 48  1  0  0  0  0
 20 49  1  0  0  0  0
 21 22  1  0  0  0  0
 21 50  1  0  0  0  0
 22 23  1  0  0  0  0
 22 51  1  0  0  0  0
 23 25  1  0  0  0  0
 23 52  1  0  0  0  0
 24 53  1  0  0  0  0
 24 54  1  0  0  0  0
 25 26  1  0  0  0  0
 25 55  1  0  0  0  0
 26 27  1  6  0  0  0
 26 56  1  0  0  0  0
 27 57  1  0  0  0  0
 27 58  1  0  0  0  0
 27 59  1  0  0  0  0
 28 30  1  0  0  0  0
 28 65  1  0  0  0  0
 28 66  1  0  0  0  0
 29 32  1  0  0  0  0
 30 31  1  0  0  0  0
 30 67  1  0  0  0  0
 30 68  1  0  0  0  0
 31 33  2  0  0  0  0
 31 34  1  0  0  0  0
 32 35  2  0  0  0  0
 32 69  1  0  0  0  0
 33 36  1  0  0  0  0
 33 70  1  0  0  0  0
 34 37  2  0  0  0  0
 34 71  1  0  0  0  0
 35 38  1  0  0  0  0
 35 72  1  0  0  0  0
 36 39  2  0  0  0  0
 37 39  1  0  0  0  0
 37 73  1  0  0  0  0
 38 40  2  0  0  0  0
 38 41  1  0  0  0  0
 40 42  1  0  0  0  0
 40 74  1  0  0  0  0
 41 43  2  0  0  0  0
 41 75  1  0  0  0  0
 42 44  2  0  0  0  0
 43 44  1  0  0  0  0
 43 78  1  0  0  0  0
M  END
> <PUBCHEM_COMPOUND_CID>
23958169

> <PUBCHEM_COMPOUND_CANONICALIZED>
1

> <PUBCHEM_CACTVS_COMPLEXITY>
936

> <PUBCHEM_CACTVS_HBOND_ACCEPTOR>
15

> <PUBCHEM_CACTVS_HBOND_DONOR>
9

> <PUBCHEM_CACTVS_ROTATABLE_BOND>
11

> <PUBCHEM_CACTVS_SUBSKEYS>
AAADcfB4PAAAAAAAAAAAAAAAAAAAAAAAAAA0aIEAAAAAAAABQAAAGgAACAAADBSwmAMyDoAABgCIAiDSCAACAAAgIAAIiAAGiMgZNiKCMRKicAElwBEPuYfA4LwOIAABAAAAQABAAAIAAACAAAAAAAAAAA==

> <PUBCHEM_IUPAC_OPENEYE_NAME>
[(2R,3R,4S,5R,6R)-2-[2-(3,4-dihydroxyphenyl)ethoxy]-3,5-dihydroxy-6-[[(2R,3R,4R,5R,6S)-3,4,5-trihydroxy-6-methyl-tetrahydropyran-2-yl]oxymethyl]tetrahydropyran-4-yl] (E)-3-(3,4-dihydroxyphenyl)prop-2-enoate

> <PUBCHEM_IUPAC_CAS_NAME>
(E)-3-(3,4-dihydroxyphenyl)-2-propenoic acid [(2R,3R,4S,5R,6R)-2-[2-(3,4-dihydroxyphenyl)ethoxy]-3,5-dihydroxy-6-[[(2R,3R,4R,5R,6S)-3,4,5-trihydroxy-6-methyl-2-oxanyl]oxymethyl]-4-oxanyl] ester

> <PUBCHEM_IUPAC_NAME_MARKUP>
[(2<I>R</I>,3<I>R</I>,4<I>S</I>,5<I>R</I>,6<I>R</I>)-2-[2-(3,4-dihydroxyphenyl)ethoxy]-3,5-dihydroxy-6-[[(2<I>R</I>,3<I>R</I>,4<I>R</I>,5<I>R</I>,6<I>S</I>)-3,4,5-trihydroxy-6-methyloxan-2-yl]oxymethyl]oxan-4-yl] (<I>E</I>)-3-(3,4-dihydroxyphenyl)prop-2-enoate

> <PUBCHEM_IUPAC_NAME>
[(2R,3R,4S,5R,6R)-2-[2-(3,4-dihydroxyphenyl)ethoxy]-3,5-dihydroxy-6-[[(2R,3R,4R,5R,6S)-3,4,5-trihydroxy-6-methyloxan-2-yl]oxymethyl]oxan-4-yl] (E)-3-(3,4-dihydroxyphenyl)prop-2-enoate

> <PUBCHEM_IUPAC_SYSTEMATIC_NAME>
[(2R,3R,4S,5R,6R)-2-[2-[3,4-bis(oxidanyl)phenyl]ethoxy]-6-[[(2R,3R,4R,5R,6S)-6-methyl-3,4,5-tris(oxidanyl)oxan-2-yl]oxymethyl]-3,5-bis(oxidanyl)oxan-4-yl] (E)-3-[3,4-bis(oxidanyl)phenyl]prop-2-enoate

> <PUBCHEM_IUPAC_TRADITIONAL_NAME>
(E)-3-(3,4-dihydroxyphenyl)acrylic acid [(2R,3R,4S,5R,6R)-2-[2-(3,4-dihydroxyphenyl)ethoxy]-3,5-dihydroxy-6-[[(2R,3R,4R,5R,6S)-3,4,5-trihydroxy-6-methyl-tetrahydropyran-2-yl]oxymethyl]tetrahydropyran-4-yl] ester

> <PUBCHEM_IUPAC_INCHI>
InChI=1S/C29H36O15/c1-13-22(35)24(37)25(38)28(42-13)41-12-20-23(36)27(44-21(34)7-4-14-2-5-16(30)18(32)10-14)26(39)29(43-20)40-9-8-15-3-6-17(31)19(33)11-15/h2-7,10-11,13,20,22-33,35-39H,8-9,12H2,1H3/b7-4+/t13-,20+,22-,23+,24+,25+,26+,27-,28+,29+/m0/s1

> <PUBCHEM_IUPAC_INCHIKEY>
GKRBWXABVALDGQ-GCELSKRESA-N

> <PUBCHEM_XLOGP3_AA>
-0.5

> <PUBCHEM_EXACT_MASS>
624.20542044

> <PUBCHEM_MOLECULAR_FORMULA>
C29H36O15

> <PUBCHEM_MOLECULAR_WEIGHT>
624.6

> <PUBCHEM_OPENEYE_CAN_SMILES>
CC1C(C(C(C(O1)OCC2C(C(C(C(O2)OCCC3=CC(=C(C=C3)O)O)O)OC(=O)C=CC4=CC(=C(C=C4)O)O)O)O)O)O

> <PUBCHEM_OPENEYE_ISO_SMILES>
C[C@H]1[C@@H]([C@H]([C@H]([C@@H](O1)OC[C@@H]2[C@H]([C@@H]([C@H]([C@@H](O2)OCCC3=CC(=C(C=C3)O)O)O)OC(=O)/C=C/C4=CC(=C(C=C4)O)O)O)O)O)O

> <PUBCHEM_CACTVS_TPSA>
245

> <PUBCHEM_MONOISOTOPIC_WEIGHT>
624.20542044

> <PUBCHEM_TOTAL_CHARGE>
0

> <PUBCHEM_HEAVY_ATOM_COUNT>
44

> <PUBCHEM_ATOM_DEF_STEREO_COUNT>
10

> <PUBCHEM_ATOM_UDEF_STEREO_COUNT>
0

> <PUBCHEM_BOND_DEF_STEREO_COUNT>
1

> <PUBCHEM_BOND_UDEF_STEREO_COUNT>
0

> <PUBCHEM_ISOTOPIC_ATOM_COUNT>
0

> <PUBCHEM_COMPONENT_COUNT>
1

> <PUBCHEM_CACTVS_TAUTO_COUNT>
288

> <PUBCHEM_COORDINATE_TYPE>
1
5
255

> <PUBCHEM_BONDANNOTATIONS>
25  10  5
16  24  5
21  2  5
26  27  6
31  33  8
31  34  8
33  36  8
34  37  8
36  39  8
37  39  8
38  40  8
38  41  8
18  4  5
40  42  8
41  43  8
42  44  8
43  44  8
17  5  6
20  6  5
19  7  6
22  8  6
23  9  6

$$$$
