MCSJ49_0025
  -OEChem-07172407472D

116122  0     1  0  0  0  0  0999 V2000
    8.7515    0.2004    0.0000 O   0  0  0  0  0  0  0  0  0  0  0  0
    3.6484    4.2823    0.0000 O   0  0  0  0  0  0  0  0  0  0  0  0
   12.3661    0.1726    0.0000 O   0  0  0  0  0  0  0  0  0  0  0  0
   11.5001   -1.3274    0.0000 O   0  0  0  0  0  0  0  0  0  0  0  0
    2.0000    4.8140    0.0000 O   0  0  0  0  0  0  0  0  0  0  0  0
   14.0982   -0.8274    0.0000 O   0  0  0  0  0  0  0  0  0  0  0  0
   14.0982   -2.8274    0.0000 O   0  0  0  0  0  0  0  0  0  0  0  0
   12.3661   -3.8274    0.0000 O   0  0  0  0  0  0  0  0  0  0  0  0
   10.6341   -3.8274    0.0000 O   0  0  0  0  0  0  0  0  0  0  0  0
    8.9020   -3.8274    0.0000 O   0  0  0  0  0  0  0  0  0  0  0  0
   10.6341   -5.8274    0.0000 O   0  0  0  0  0  0  0  0  0  0  0  0
    8.9020   -6.8274    0.0000 O   0  0  0  0  0  0  0  0  0  0  0  0
    7.1700   -5.8274    0.0000 O   0  0  0  0  0  0  0  0  0  0  0  0
    7.1700   -2.8274    0.0000 O   0  0  0  0  0  0  0  0  0  0  0  0
    7.0141    3.2963    0.0000 C   0  0  1  0  0  0  0  0  0  0  0  0
    7.8782    3.7997    0.0000 C   0  0  2  0  0  0  0  0  0  0  0  0
    8.7462    3.3030    0.0000 C   0  0  1  0  0  0  0  0  0  0  0  0
    8.7500    2.3030    0.0000 C   0  0  1  0  0  0  0  0  0  0  0  0
    6.2745    3.9606    0.0000 C   0  0  2  0  0  0  0  0  0  0  0  0
    7.0180    2.2963    0.0000 C   0  0  0  0  0  0  0  0  0  0  0  0
    9.6460    1.7718    0.0000 C   0  0  2  0  0  0  0  0  0  0  0  0
    7.6652    4.7707    0.0000 C   0  0  0  0  0  0  0  0  0  0  0  0
    7.8859    1.7997    0.0000 C   0  0  0  0  0  0  0  0  0  0  0  0
    6.6761    4.8699    0.0000 C   0  0  0  0  0  0  0  0  0  0  0  0
    9.6380    3.8411    0.0000 C   0  0  0  0  0  0  0  0  0  0  0  0
    5.2968    3.7506    0.0000 C   0  0  1  0  0  0  0  0  0  0  0  0
    6.1500    2.7930    0.0000 C   0  0  0  0  0  0  0  0  0  0  0  0
   10.5501    2.2891    0.0000 C   0  0  0  0  0  0  0  0  0  0  0  0
    9.6251    0.6870    0.0000 C   0  0  2  0  0  0  0  0  0  0  0  0
   10.5461    3.3308    0.0000 C   0  0  0  0  0  0  0  0  0  0  0  0
    8.7780    1.2751    0.0000 C   0  0  0  0  0  0  0  0  0  0  0  0
   11.4959    1.7575    0.0000 C   0  0  0  0  0  0  0  0  0  0  0  0
   10.5584    0.1337    0.0000 C   0  0  0  0  0  0  0  0  0  0  0  0
    4.6261    4.4923    0.0000 C   0  0  1  0  0  0  0  0  0  0  0  0
   11.5001    0.6726    0.0000 C   0  0  2  0  0  0  0  0  0  0  0  0
    4.9898    2.7989    0.0000 C   0  0  0  0  0  0  0  0  0  0  0  0
    4.9331    5.4440    0.0000 C   0  0  0  0  0  0  0  0  0  0  0  0
    4.2624    6.1857    0.0000 C   0  0  0  0  0  0  0  0  0  0  0  0
   12.3661   -0.8274    0.0000 C   0  0  2  0  0  0  0  0  0  0  0  0
    2.9777    5.0240    0.0000 C   0  0  0  0  0  0  0  0  0  0  0  0
    3.2847    5.9758    0.0000 C   0  0  0  0  0  0  0  0  0  0  0  0
   13.2322   -1.3274    0.0000 C   0  0  1  0  0  0  0  0  0  0  0  0
    4.5694    7.1374    0.0000 C   0  0  0  0  0  0  0  0  0  0  0  0
    2.6140    6.7175    0.0000 C   0  0  0  0  0  0  0  0  0  0  0  0
   13.2322   -2.3274    0.0000 C   0  0  2  0  0  0  0  0  0  0  0  0
   11.5001   -2.3274    0.0000 C   0  0  1  0  0  0  0  0  0  0  0  0
   12.3661   -2.8274    0.0000 C   0  0  1  0  0  0  0  0  0  0  0  0
   10.6341   -2.8274    0.0000 C   0  0  0  0  0  0  0  0  0  0  0  0
    9.7680   -4.3274    0.0000 C   0  0  2  0  0  0  0  0  0  0  0  0
    9.7680   -5.3274    0.0000 C   0  0  1  0  0  0  0  0  0  0  0  0
    8.9020   -5.8274    0.0000 C   0  0  2  0  0  0  0  0  0  0  0  0
    8.0360   -4.3274    0.0000 C   0  0  1  0  0  0  0  0  0  0  0  0
    8.0360   -5.3274    0.0000 C   0  0  1  0  0  0  0  0  0  0  0  0
    7.1700   -3.8274    0.0000 C   0  0  0  0  0  0  0  0  0  0  0  0
    8.5633    4.3028    0.0000 H   0  0  0  0  0  0  0  0  0  0  0  0
    8.7363    4.1530    0.0000 H   0  0  0  0  0  0  0  0  0  0  0  0
    9.4878    2.7252    0.0000 H   0  0  0  0  0  0  0  0  0  0  0  0
    5.7379    4.6198    0.0000 H   0  0  0  0  0  0  0  0  0  0  0  0
    6.4070    2.4016    0.0000 H   0  0  0  0  0  0  0  0  0  0  0  0
    6.8082    1.7129    0.0000 H   0  0  0  0  0  0  0  0  0  0  0  0
    8.2815    4.8391    0.0000 H   0  0  0  0  0  0  0  0  0  0  0  0
    7.6620    5.3907    0.0000 H   0  0  0  0  0  0  0  0  0  0  0  0
    7.4892    1.3232    0.0000 H   0  0  0  0  0  0  0  0  0  0  0  0
    8.2863    1.3263    0.0000 H   0  0  0  0  0  0  0  0  0  0  0  0
    6.8025    5.4769    0.0000 H   0  0  0  0  0  0  0  0  0  0  0  0
    6.0858    5.0594    0.0000 H   0  0  0  0  0  0  0  0  0  0  0  0
   10.0298    4.3216    0.0000 H   0  0  0  0  0  0  0  0  0  0  0  0
    9.2316    4.3093    0.0000 H   0  0  0  0  0  0  0  0  0  0  0  0
    4.6906    3.6204    0.0000 H   0  0  0  0  0  0  0  0  0  0  0  0
    5.8380    3.3287    0.0000 H   0  0  0  0  0  0  0  0  0  0  0  0
    5.6143    2.4809    0.0000 H   0  0  0  0  0  0  0  0  0  0  0  0
    6.4621    2.2573    0.0000 H   0  0  0  0  0  0  0  0  0  0  0  0
    9.6167    0.0671    0.0000 H   0  0  0  0  0  0  0  0  0  0  0  0
   11.0806    3.6449    0.0000 H   0  0  0  0  0  0  0  0  0  0  0  0
    8.4701    1.8133    0.0000 H   0  0  0  0  0  0  0  0  0  0  0  0
    8.2399    0.9672    0.0000 H   0  0  0  0  0  0  0  0  0  0  0  0
    9.0860    0.7370    0.0000 H   0  0  0  0  0  0  0  0  0  0  0  0
   12.1072    1.6538    0.0000 H   0  0  0  0  0  0  0  0  0  0  0  0
   11.7027    2.3420    0.0000 H   0  0  0  0  0  0  0  0  0  0  0  0
   10.1556   -0.3377    0.0000 H   0  0  0  0  0  0  0  0  0  0  0  0
   10.9539   -0.3438    0.0000 H   0  0  0  0  0  0  0  0  0  0  0  0
    5.4572    4.6708    0.0000 H   0  0  0  0  0  0  0  0  0  0  0  0
   12.0364    0.9836    0.0000 H   0  0  0  0  0  0  0  0  0  0  0  0
    4.3998    2.9892    0.0000 H   0  0  0  0  0  0  0  0  0  0  0  0
    4.7995    2.2088    0.0000 H   0  0  0  0  0  0  0  0  0  0  0  0
    5.5799    2.6085    0.0000 H   0  0  0  0  0  0  0  0  0  0  0  0
    5.4812    5.1541    0.0000 H   0  0  0  0  0  0  0  0  0  0  0  0
    5.3138    5.9334    0.0000 H   0  0  0  0  0  0  0  0  0  0  0  0
    8.7419   -0.4195    0.0000 H   0  0  0  0  0  0  0  0  0  0  0  0
   11.8292   -0.5174    0.0000 H   0  0  0  0  0  0  0  0  0  0  0  0
   13.7691   -1.6374    0.0000 H   0  0  0  0  0  0  0  0  0  0  0  0
    5.1595    6.9471    0.0000 H   0  0  0  0  0  0  0  0  0  0  0  0
    4.7597    7.7275    0.0000 H   0  0  0  0  0  0  0  0  0  0  0  0
    3.9793    7.3278    0.0000 H   0  0  0  0  0  0  0  0  0  0  0  0
    3.0739    7.1333    0.0000 H   0  0  0  0  0  0  0  0  0  0  0  0
    2.1982    7.1773    0.0000 H   0  0  0  0  0  0  0  0  0  0  0  0
    2.1541    6.3016    0.0000 H   0  0  0  0  0  0  0  0  0  0  0  0
   13.2322   -2.9474    0.0000 H   0  0  0  0  0  0  0  0  0  0  0  0
   10.9632   -2.0175    0.0000 H   0  0  0  0  0  0  0  0  0  0  0  0
   11.8292   -3.1374    0.0000 H   0  0  0  0  0  0  0  0  0  0  0  0
   14.0982   -0.2074    0.0000 H   0  0  0  0  0  0  0  0  0  0  0  0
   10.4220   -2.2448    0.0000 H   0  0  0  0  0  0  0  0  0  0  0  0
   10.0235   -2.9351    0.0000 H   0  0  0  0  0  0  0  0  0  0  0  0
   14.6351   -2.5175    0.0000 H   0  0  0  0  0  0  0  0  0  0  0  0
   12.9031   -4.1374    0.0000 H   0  0  0  0  0  0  0  0  0  0  0  0
   10.3050   -4.6374    0.0000 H   0  0  0  0  0  0  0  0  0  0  0  0
    9.7680   -5.9474    0.0000 H   0  0  0  0  0  0  0  0  0  0  0  0
    8.3651   -6.1374    0.0000 H   0  0  0  0  0  0  0  0  0  0  0  0
    8.0360   -3.7074    0.0000 H   0  0  0  0  0  0  0  0  0  0  0  0
    7.4991   -5.0174    0.0000 H   0  0  0  0  0  0  0  0  0  0  0  0
   11.1710   -5.5174    0.0000 H   0  0  0  0  0  0  0  0  0  0  0  0
    6.5594   -3.7198    0.0000 H   0  0  0  0  0  0  0  0  0  0  0  0
    6.9579   -4.4101    0.0000 H   0  0  0  0  0  0  0  0  0  0  0  0
    8.3651   -7.1374    0.0000 H   0  0  0  0  0  0  0  0  0  0  0  0
    6.6330   -5.5174    0.0000 H   0  0  0  0  0  0  0  0  0  0  0  0
    6.6330   -2.5175    0.0000 H   0  0  0  0  0  0  0  0  0  0  0  0
 29  1  1  6  0  0  0
  1 89  1  0  0  0  0
  2 34  1  0  0  0  0
  2 40  1  0  0  0  0
 35  3  1  1  0  0  0
 39  3  1  1  0  0  0
  4 39  1  0  0  0  0
  4 46  1  0  0  0  0
  5 40  2  0  0  0  0
 42  6  1  6  0  0  0
  6101  1  0  0  0  0
 45  7  1  1  0  0  0
  7104  1  0  0  0  0
 47  8  1  6  0  0  0
  8105  1  0  0  0  0
  9 48  1  0  0  0  0
 49  9  1  1  0  0  0
 10 49  1  0  0  0  0
 10 52  1  0  0  0  0
 50 11  1  6  0  0  0
 11111  1  0  0  0  0
 51 12  1  1  0  0  0
 12114  1  0  0  0  0
 53 13  1  6  0  0  0
 13115  1  0  0  0  0
 14 54  1  0  0  0  0
 14116  1  0  0  0  0
 15 16  1  0  0  0  0
 15 19  1  0  0  0  0
 15 20  1  0  0  0  0
 15 27  1  1  0  0  0
 16 17  1  0  0  0  0
 16 22  1  0  0  0  0
 16 55  1  6  0  0  0
 17 18  1  0  0  0  0
 17 25  1  0  0  0  0
 17 56  1  1  0  0  0
 18 21  1  0  0  0  0
 18 23  1  0  0  0  0
 18 57  1  6  0  0  0
 19 24  1  0  0  0  0
 19 26  1  0  0  0  0
 19 58  1  6  0  0  0
 20 23  1  0  0  0  0
 20 59  1  0  0  0  0
 20 60  1  0  0  0  0
 21 28  1  0  0  0  0
 21 29  1  0  0  0  0
 21 31  1  1  0  0  0
 22 24  1  0  0  0  0
 22 61  1  0  0  0  0
 22 62  1  0  0  0  0
 23 63  1  0  0  0  0
 23 64  1  0  0  0  0
 24 65  1  0  0  0  0
 24 66  1  0  0  0  0
 25 30  1  0  0  0  0
 25 67  1  0  0  0  0
 25 68  1  0  0  0  0
 26 34  1  0  0  0  0
 26 36  1  6  0  0  0
 26 69  1  0  0  0  0
 27 70  1  0  0  0  0
 27 71  1  0  0  0  0
 27 72  1  0  0  0  0
 28 30  2  0  0  0  0
 28 32  1  0  0  0  0
 29 33  1  0  0  0  0
 29 73  1  0  0  0  0
 30 74  1  0  0  0  0
 31 75  1  0  0  0  0
 31 76  1  0  0  0  0
 31 77  1  0  0  0  0
 32 35  1  0  0  0  0
 32 78  1  0  0  0  0
 32 79  1  0  0  0  0
 33 35  1  0  0  0  0
 33 80  1  0  0  0  0
 33 81  1  0  0  0  0
 34 37  1  0  0  0  0
 34 82  1  1  0  0  0
 35 83  1  0  0  0  0
 36 84  1  0  0  0  0
 36 85  1  0  0  0  0
 36 86  1  0  0  0  0
 37 38  1  0  0  0  0
 37 87  1  0  0  0  0
 37 88  1  0  0  0  0
 38 41  2  0  0  0  0
 38 43  1  0  0  0  0
 39 42  1  0  0  0  0
 39 90  1  0  0  0  0
 40 41  1  0  0  0  0
 41 44  1  0  0  0  0
 42 45  1  0  0  0  0
 42 91  1  0  0  0  0
 43 92  1  0  0  0  0
 43 93  1  0  0  0  0
 43 94  1  0  0  0  0
 44 95  1  0  0  0  0
 44 96  1  0  0  0  0
 44 97  1  0  0  0  0
 45 47  1  0  0  0  0
 45 98  1  0  0  0  0
 46 47  1  0  0  0  0
 46 48  1  1  0  0  0
 46 99  1  0  0  0  0
 47100  1  0  0  0  0
 48102  1  0  0  0  0
 48103  1  0  0  0  0
 49 50  1  0  0  0  0
 49106  1  0  0  0  0
 50 51  1  0  0  0  0
 50107  1  0  0  0  0
 51 53  1  0  0  0  0
 51108  1  0  0  0  0
 52 53  1  0  0  0  0
 52 54  1  1  0  0  0
 52109  1  0  0  0  0
 53110  1  0  0  0  0
 54112  1  0  0  0  0
 54113  1  0  0  0  0
M  END
> <PUBCHEM_COMPOUND_CID>
10700345

> <PUBCHEM_COMPOUND_CANONICALIZED>
1

> <PUBCHEM_CACTVS_COMPLEXITY>
1450

> <PUBCHEM_CACTVS_HBOND_ACCEPTOR>
14

> <PUBCHEM_CACTVS_HBOND_DONOR>
8

> <PUBCHEM_CACTVS_ROTATABLE_BOND>
8

> <PUBCHEM_CACTVS_SUBSKEYS>
AAADcfB8PAAAAAAAAAAAAAAAAAAAAYAAAAA0aIECAAAAAGCAAAAAGgAACAAADxSwgAMCCAAABgCIAiDSCAAAAAAgAAAACAEAAEgRFAIAIQAiUAAFwAAPIQPA4PwPgAAAAAAAAADAAAQQADAAAQAACAAAAA==

> <PUBCHEM_IUPAC_OPENEYE_NAME>
(2R)-2-[(1S)-1-[(1S,3R,8S,9S,10R,13S,14S,17R)-1-hydroxy-10,13-dimethyl-3-[(2R,3R,4S,5S,6R)-3,4,5-trihydroxy-6-[[(2R,3R,4S,5S,6R)-3,4,5-trihydroxy-6-(hydroxymethyl)tetrahydropyran-2-yl]oxymethyl]tetrahydropyran-2-yl]oxy-2,3,4,7,8,9,11,12,14,15,16,17-dodecahydro-1H-cyclopenta[a]phenanthren-17-yl]ethyl]-4,5-dimethyl-2,3-dihydropyran-6-one

> <PUBCHEM_IUPAC_CAS_NAME>
(2R)-2-[(1S)-1-[(1S,3R,8S,9S,10R,13S,14S,17R)-1-hydroxy-10,13-dimethyl-3-[[(2R,3R,4S,5S,6R)-3,4,5-trihydroxy-6-[[(2R,3R,4S,5S,6R)-3,4,5-trihydroxy-6-(hydroxymethyl)-2-oxanyl]oxymethyl]-2-oxanyl]oxy]-2,3,4,7,8,9,11,12,14,15,16,17-dodecahydro-1H-cyclopenta[a]phenanthren-17-yl]ethyl]-4,5-dimethyl-2,3-dihydropyran-6-one

> <PUBCHEM_IUPAC_NAME_MARKUP>
(2<I>R</I>)-2-[(1<I>S</I>)-1-[(1<I>S</I>,3<I>R</I>,8<I>S</I>,9<I>S</I>,10<I>R</I>,13<I>S</I>,14<I>S</I>,17<I>R</I>)-1-hydroxy-10,13-dimethyl-3-[(2<I>R</I>,3<I>R</I>,4<I>S</I>,5<I>S</I>,6<I>R</I>)-3,4,5-trihydroxy-6-[[(2<I>R</I>,3<I>R</I>,4<I>S</I>,5<I>S</I>,6<I>R</I>)-3,4,5-trihydroxy-6-(hydroxymethyl)oxan-2-yl]oxymethyl]oxan-2-yl]oxy-2,3,4,7,8,9,11,12,14,15,16,17-dodecahydro-1<I>H</I>-cyclopenta[a]phenanthren-17-yl]ethyl]-4,5-dimethyl-2,3-dihydropyran-6-one

> <PUBCHEM_IUPAC_NAME>
(2R)-2-[(1S)-1-[(1S,3R,8S,9S,10R,13S,14S,17R)-1-hydroxy-10,13-dimethyl-3-[(2R,3R,4S,5S,6R)-3,4,5-trihydroxy-6-[[(2R,3R,4S,5S,6R)-3,4,5-trihydroxy-6-(hydroxymethyl)oxan-2-yl]oxymethyl]oxan-2-yl]oxy-2,3,4,7,8,9,11,12,14,15,16,17-dodecahydro-1H-cyclopenta[a]phenanthren-17-yl]ethyl]-4,5-dimethyl-2,3-dihydropyran-6-one

> <PUBCHEM_IUPAC_SYSTEMATIC_NAME>
(2R)-2-[(1S)-1-[(1S,3R,8S,9S,10R,13S,14S,17R)-3-[(2R,3R,4S,5S,6R)-6-[[(2R,3R,4S,5S,6R)-6-(hydroxymethyl)-3,4,5-tris(oxidanyl)oxan-2-yl]oxymethyl]-3,4,5-tris(oxidanyl)oxan-2-yl]oxy-10,13-dimethyl-1-oxidanyl-2,3,4,7,8,9,11,12,14,15,16,17-dodecahydro-1H-cyclopenta[a]phenanthren-17-yl]ethyl]-4,5-dimethyl-2,3-dihydropyran-6-one

> <PUBCHEM_IUPAC_TRADITIONAL_NAME>
(2R)-2-[(1S)-1-[(1S,3R,8S,9S,10R,13S,14S,17R)-1-hydroxy-10,13-dimethyl-3-[(2R,3R,4S,5S,6R)-3,4,5-trihydroxy-6-[[(2R,3R,4S,5S,6R)-3,4,5-trihydroxy-6-methylol-tetrahydropyran-2-yl]oxymethyl]tetrahydropyran-2-yl]oxy-2,3,4,7,8,9,11,12,14,15,16,17-dodecahydro-1H-cyclopenta[a]phenanthren-17-yl]ethyl]-4,5-dimethyl-2,3-dihydropyran-6-one

> <PUBCHEM_IUPAC_INCHI>
InChI=1S/C40H62O14/c1-17-12-26(52-36(49)18(17)2)19(3)23-8-9-24-22-7-6-20-13-21(14-29(42)40(20,5)25(22)10-11-39(23,24)4)51-38-35(48)33(46)31(44)28(54-38)16-50-37-34(47)32(45)30(43)27(15-41)53-37/h6,19,21-35,37-38,41-48H,7-16H2,1-5H3/t19-,21+,22-,23+,24-,25-,26+,27+,28+,29-,30+,31+,32-,33-,34+,35+,37+,38+,39+,40-/m0/s1

> <PUBCHEM_IUPAC_INCHIKEY>
ZBLWKSUMHLVXAM-KFJRISAASA-N

> <PUBCHEM_XLOGP3_AA>
1.7

> <PUBCHEM_EXACT_MASS>
766.41395665

> <PUBCHEM_MOLECULAR_FORMULA>
C40H62O14

> <PUBCHEM_MOLECULAR_WEIGHT>
766.9

> <PUBCHEM_OPENEYE_CAN_SMILES>
CC1=C(C(=O)OC(C1)C(C)C2CCC3C2(CCC4C3CC=C5C4(C(CC(C5)OC6C(C(C(C(O6)COC7C(C(C(C(O7)CO)O)O)O)O)O)O)O)C)C)C

> <PUBCHEM_OPENEYE_ISO_SMILES>
CC1=C(C(=O)O[C@H](C1)[C@@H](C)[C@H]2CC[C@@H]3[C@@]2(CC[C@H]4[C@H]3CC=C5[C@@]4([C@H](C[C@@H](C5)O[C@H]6[C@@H]([C@H]([C@@H]([C@H](O6)CO[C@H]7[C@@H]([C@H]([C@@H]([C@H](O7)CO)O)O)O)O)O)O)O)C)C)C

> <PUBCHEM_CACTVS_TPSA>
225

> <PUBCHEM_MONOISOTOPIC_WEIGHT>
766.41395665

> <PUBCHEM_TOTAL_CHARGE>
0

> <PUBCHEM_HEAVY_ATOM_COUNT>
54

> <PUBCHEM_ATOM_DEF_STEREO_COUNT>
20

> <PUBCHEM_ATOM_UDEF_STEREO_COUNT>
0

> <PUBCHEM_BOND_DEF_STEREO_COUNT>
0

> <PUBCHEM_BOND_UDEF_STEREO_COUNT>
0

> <PUBCHEM_ISOTOPIC_ATOM_COUNT>
0

> <PUBCHEM_COMPONENT_COUNT>
1

> <PUBCHEM_CACTVS_TAUTO_COUNT>
-1

> <PUBCHEM_COORDINATE_TYPE>
1
5
255

> <PUBCHEM_BONDANNOTATIONS>
29  1  6
50  11  6
51  12  5
53  13  6
15  27  5
16  55  6
17  56  5
18  57  6
19  58  6
21  31  5
26  36  6
35  3  5
39  3  5
34  82  5
46  48  5
52  54  5
42  6  6
45  7  5
47  8  6
49  9  5

$$$$
