SV_J22_0008
  -OEChem-07172407052D

103110  0     1  0  0  0  0  0999 V2000
    8.8049   -1.3953    0.0000 O   0  0  0  0  0  0  0  0  0  0  0  0
   12.5502    0.0136    0.0000 O   0  0  0  0  0  0  0  0  0  0  0  0
    6.4933   -2.6822    0.0000 O   0  0  0  0  0  0  0  0  0  0  0  0
   14.2822    2.0136    0.0000 O   0  0  0  0  0  0  0  0  0  0  0  0
    9.4100   -4.8448    0.0000 O   0  0  0  0  0  0  0  0  0  0  0  0
   10.8018    3.0482    0.0000 O   0  0  0  0  0  0  0  0  0  0  0  0
   12.1304   -2.5799    0.0000 O   0  0  0  0  0  0  0  0  0  0  0  0
    8.8987    0.6626    0.0000 O   0  0  0  0  0  0  0  0  0  0  0  0
    7.2186    1.8426    0.0000 O   0  0  0  0  0  0  0  0  0  0  0  0
   16.8803    0.5136    0.0000 O   0  0  0  0  0  0  0  0  0  0  0  0
    4.5649   -0.3841    0.0000 O   0  0  0  0  0  0  0  0  0  0  0  0
   15.1482   -2.4864    0.0000 O   0  0  0  0  0  0  0  0  0  0  0  0
    6.7940   -4.3879    0.0000 O   0  0  0  0  0  0  0  0  0  0  0  0
   13.4162    3.5136    0.0000 O   0  0  0  0  0  0  0  0  0  0  0  0
    5.2490    1.4953    0.0000 O   0  0  0  0  0  0  0  0  0  0  0  0
   16.8803   -1.4864    0.0000 O   0  0  0  0  0  0  0  0  0  0  0  0
    2.8961   -2.4371    0.0000 O   0  0  0  0  0  0  0  0  0  0  0  0
   16.0143    6.0136    0.0000 O   0  0  0  0  0  0  0  0  0  0  0  0
    3.4976   -5.8486    0.0000 O   0  0  0  0  0  0  0  0  0  0  0  0
   17.7463    3.0136    0.0000 O   0  0  0  0  0  0  0  0  0  0  0  0
    2.2120   -4.3165    0.0000 O   0  0  0  0  0  0  0  0  0  0  0  0
   17.7463    5.0136    0.0000 O   0  0  0  0  0  0  0  0  0  0  0  0
    7.4781   -2.5086    0.0000 C   0  0  3  0  0  0  0  0  0  0  0  0
   13.4162    1.5136    0.0000 C   0  0  3  0  0  0  0  0  0  0  0  0
    7.8201   -1.5689    0.0000 C   0  0  3  0  0  0  0  0  0  0  0  0
   13.4162    0.5136    0.0000 C   0  0  3  0  0  0  0  0  0  0  0  0
    8.1208   -3.2746    0.0000 C   0  0  0  0  0  0  0  0  0  0  0  0
   12.5502    2.0136    0.0000 C   0  0  0  0  0  0  0  0  0  0  0  0
    9.1056   -3.1009    0.0000 C   0  0  0  0  0  0  0  0  0  0  0  0
   11.6841    1.5136    0.0000 C   0  0  0  0  0  0  0  0  0  0  0  0
    9.4477   -2.1612    0.0000 C   0  0  0  0  0  0  0  0  0  0  0  0
   11.6841    0.5136    0.0000 C   0  0  0  0  0  0  0  0  0  0  0  0
   10.4706   -1.9646    0.0000 C   0  0  0  0  0  0  0  0  0  0  0  0
   10.7902   -0.0211    0.0000 C   0  0  0  0  0  0  0  0  0  0  0  0
   10.8018   -1.0210    0.0000 C   0  0  0  0  0  0  0  0  0  0  0  0
    7.1773   -0.8029    0.0000 C   0  0  0  0  0  0  0  0  0  0  0  0
   14.2822    0.0136    0.0000 C   0  0  0  0  0  0  0  0  0  0  0  0
    9.7628   -3.9091    0.0000 C   0  0  0  0  0  0  0  0  0  0  0  0
   10.7902    2.0482    0.0000 C   0  0  0  0  0  0  0  0  0  0  0  0
   11.1463   -2.7574    0.0000 C   0  0  0  0  0  0  0  0  0  0  0  0
    9.8841    0.4927    0.0000 C   0  0  0  0  0  0  0  0  0  0  0  0
   10.7901   -3.7362    0.0000 C   0  0  0  0  0  0  0  0  0  0  0  0
    9.8841    1.5344    0.0000 C   0  0  0  0  0  0  0  0  0  0  0  0
    6.1925   -0.9765    0.0000 C   0  0  0  0  0  0  0  0  0  0  0  0
   14.2822   -0.9864    0.0000 C   0  0  0  0  0  0  0  0  0  0  0  0
    7.5194    0.1368    0.0000 C   0  0  0  0  0  0  0  0  0  0  0  0
   15.1482    0.5136    0.0000 C   0  0  0  0  0  0  0  0  0  0  0  0
    6.1513   -3.6219    0.0000 C   0  0  0  0  0  0  0  0  0  0  0  0
   14.2822    3.0136    0.0000 C   0  0  0  0  0  0  0  0  0  0  0  0
    6.8766    0.9029    0.0000 C   0  0  0  0  0  0  0  0  0  0  0  0
   16.0143    0.0136    0.0000 C   0  0  0  0  0  0  0  0  0  0  0  0
    5.5498   -0.2105    0.0000 C   0  0  0  0  0  0  0  0  0  0  0  0
   15.1482   -1.4864    0.0000 C   0  0  0  0  0  0  0  0  0  0  0  0
    5.8918    0.7292    0.0000 C   0  0  0  0  0  0  0  0  0  0  0  0
   16.0143   -0.9864    0.0000 C   0  0  0  0  0  0  0  0  0  0  0  0
    5.1665   -3.7956    0.0000 C   0  0  0  0  0  0  0  0  0  0  0  0
   15.1482    3.5136    0.0000 C   0  0  0  0  0  0  0  0  0  0  0  0
    4.8245   -4.7353    0.0000 C   0  0  0  0  0  0  0  0  0  0  0  0
   16.0143    3.0136    0.0000 C   0  0  0  0  0  0  0  0  0  0  0  0
    4.5237   -3.0295    0.0000 C   0  0  0  0  0  0  0  0  0  0  0  0
   15.1482    4.5136    0.0000 C   0  0  0  0  0  0  0  0  0  0  0  0
    3.5389   -3.2032    0.0000 C   0  0  0  0  0  0  0  0  0  0  0  0
   16.0143    5.0136    0.0000 C   0  0  0  0  0  0  0  0  0  0  0  0
    3.8396   -4.9089    0.0000 C   0  0  0  0  0  0  0  0  0  0  0  0
   16.8803    3.5136    0.0000 C   0  0  0  0  0  0  0  0  0  0  0  0
    3.1969   -4.1429    0.0000 C   0  0  0  0  0  0  0  0  0  0  0  0
   16.8803    4.5136    0.0000 C   0  0  0  0  0  0  0  0  0  0  0  0
    7.0796   -2.0336    0.0000 H   0  0  0  0  0  0  0  0  0  0  0  0
   13.4162    2.1336    0.0000 H   0  0  0  0  0  0  0  0  0  0  0  0
    8.0322   -0.9863    0.0000 H   0  0  0  0  0  0  0  0  0  0  0  0
   13.9531    0.8236    0.0000 H   0  0  0  0  0  0  0  0  0  0  0  0
    7.5839   -3.5846    0.0000 H   0  0  0  0  0  0  0  0  0  0  0  0
    8.3329   -3.8572    0.0000 H   0  0  0  0  0  0  0  0  0  0  0  0
   12.9487    2.4885    0.0000 H   0  0  0  0  0  0  0  0  0  0  0  0
   12.1516    2.4885    0.0000 H   0  0  0  0  0  0  0  0  0  0  0  0
   11.2576   -1.4413    0.0000 H   0  0  0  0  0  0  0  0  0  0  0  0
   10.1900   -0.9204    0.0000 H   0  0  0  0  0  0  0  0  0  0  0  0
   11.1867   -4.2127    0.0000 H   0  0  0  0  0  0  0  0  0  0  0  0
    9.3484    1.8464    0.0000 H   0  0  0  0  0  0  0  0  0  0  0  0
    5.9805   -1.5591    0.0000 H   0  0  0  0  0  0  0  0  0  0  0  0
   13.7453   -1.2964    0.0000 H   0  0  0  0  0  0  0  0  0  0  0  0
    8.1299    0.2445    0.0000 H   0  0  0  0  0  0  0  0  0  0  0  0
   15.1482    1.1336    0.0000 H   0  0  0  0  0  0  0  0  0  0  0  0
    9.8030   -5.3243    0.0000 H   0  0  0  0  0  0  0  0  0  0  0  0
   11.3422    3.3519    0.0000 H   0  0  0  0  0  0  0  0  0  0  0  0
   12.5308   -3.0533    0.0000 H   0  0  0  0  0  0  0  0  0  0  0  0
    8.5020    0.1861    0.0000 H   0  0  0  0  0  0  0  0  0  0  0  0
    6.8201    2.3175    0.0000 H   0  0  0  0  0  0  0  0  0  0  0  0
   17.4172    0.2036    0.0000 H   0  0  0  0  0  0  0  0  0  0  0  0
    4.1664    0.0908    0.0000 H   0  0  0  0  0  0  0  0  0  0  0  0
   15.6852   -2.7964    0.0000 H   0  0  0  0  0  0  0  0  0  0  0  0
    5.2230   -5.2102    0.0000 H   0  0  0  0  0  0  0  0  0  0  0  0
   16.0143    2.3936    0.0000 H   0  0  0  0  0  0  0  0  0  0  0  0
    4.7357   -2.4469    0.0000 H   0  0  0  0  0  0  0  0  0  0  0  0
   14.6113    4.8236    0.0000 H   0  0  0  0  0  0  0  0  0  0  0  0
    4.6384    1.3876    0.0000 H   0  0  0  0  0  0  0  0  0  0  0  0
   17.4172   -1.1764    0.0000 H   0  0  0  0  0  0  0  0  0  0  0  0
    2.2855   -2.5448    0.0000 H   0  0  0  0  0  0  0  0  0  0  0  0
   15.4773    6.3236    0.0000 H   0  0  0  0  0  0  0  0  0  0  0  0
    3.8962   -6.3236    0.0000 H   0  0  0  0  0  0  0  0  0  0  0  0
   18.2832    3.3236    0.0000 H   0  0  0  0  0  0  0  0  0  0  0  0
    2.0000   -4.8991    0.0000 H   0  0  0  0  0  0  0  0  0  0  0  0
   17.7463    5.6336    0.0000 H   0  0  0  0  0  0  0  0  0  0  0  0
  1 25  1  0  0  0  0
  1 31  1  0  0  0  0
  2 26  1  0  0  0  0
  2 32  1  0  0  0  0
  3 23  1  0  0  0  0
  3 48  1  0  0  0  0
  4 24  1  0  0  0  0
  4 49  1  0  0  0  0
  5 38  1  0  0  0  0
  5 84  1  0  0  0  0
  6 39  1  0  0  0  0
  6 85  1  0  0  0  0
  7 40  1  0  0  0  0
  7 86  1  0  0  0  0
  8 41  1  0  0  0  0
  8 87  1  0  0  0  0
  9 50  1  0  0  0  0
  9 88  1  0  0  0  0
 10 51  1  0  0  0  0
 10 89  1  0  0  0  0
 11 52  1  0  0  0  0
 11 90  1  0  0  0  0
 12 53  1  0  0  0  0
 12 91  1  0  0  0  0
 13 48  2  0  0  0  0
 14 49  2  0  0  0  0
 15 54  1  0  0  0  0
 15 96  1  0  0  0  0
 16 55  1  0  0  0  0
 16 97  1  0  0  0  0
 17 62  1  0  0  0  0
 17 98  1  0  0  0  0
 18 63  1  0  0  0  0
 18 99  1  0  0  0  0
 19 64  1  0  0  0  0
 19100  1  0  0  0  0
 20 65  1  0  0  0  0
 20101  1  0  0  0  0
 21 66  1  0  0  0  0
 21102  1  0  0  0  0
 22 67  1  0  0  0  0
 22103  1  0  0  0  0
 23 25  1  0  0  0  0
 23 27  1  0  0  0  0
 23 68  1  0  0  0  0
 24 26  1  0  0  0  0
 24 28  1  0  0  0  0
 24 69  1  0  0  0  0
 25 36  1  0  0  0  0
 25 70  1  0  0  0  0
 26 37  1  0  0  0  0
 26 71  1  0  0  0  0
 27 29  1  0  0  0  0
 27 72  1  0  0  0  0
 27 73  1  0  0  0  0
 28 30  1  0  0  0  0
 28 74  1  0  0  0  0
 28 75  1  0  0  0  0
 29 31  2  0  0  0  0
 29 38  1  0  0  0  0
 30 32  2  0  0  0  0
 30 39  1  0  0  0  0
 31 33  1  0  0  0  0
 32 34  1  0  0  0  0
 33 35  1  0  0  0  0
 33 40  2  0  0  0  0
 34 35  1  0  0  0  0
 34 41  2  0  0  0  0
 35 76  1  0  0  0  0
 35 77  1  0  0  0  0
 36 44  2  0  0  0  0
 36 46  1  0  0  0  0
 37 45  2  0  0  0  0
 37 47  1  0  0  0  0
 38 42  2  0  0  0  0
 39 43  2  0  0  0  0
 40 42  1  0  0  0  0
 41 43  1  0  0  0  0
 42 78  1  0  0  0  0
 43 79  1  0  0  0  0
 44 52  1  0  0  0  0
 44 80  1  0  0  0  0
 45 53  1  0  0  0  0
 45 81  1  0  0  0  0
 46 50  2  0  0  0  0
 46 82  1  0  0  0  0
 47 51  2  0  0  0  0
 47 83  1  0  0  0  0
 48 56  1  0  0  0  0
 49 57  1  0  0  0  0
 50 54  1  0  0  0  0
 51 55  1  0  0  0  0
 52 54  2  0  0  0  0
 53 55  2  0  0  0  0
 56 58  2  0  0  0  0
 56 60  1  0  0  0  0
 57 59  2  0  0  0  0
 57 61  1  0  0  0  0
 58 64  1  0  0  0  0
 58 92  1  0  0  0  0
 59 65  1  0  0  0  0
 59 93  1  0  0  0  0
 60 62  2  0  0  0  0
 60 94  1  0  0  0  0
 61 63  2  0  0  0  0
 61 95  1  0  0  0  0
 62 66  1  0  0  0  0
 63 67  1  0  0  0  0
 64 66  2  0  0  0  0
 65 67  2  0  0  0  0
M  END
> <PUBCHEM_COMPOUND_CID>
14520989

> <PUBCHEM_COMPOUND_CANONICALIZED>
1

> <PUBCHEM_CACTVS_COMPLEXITY>
1530

> <PUBCHEM_CACTVS_HBOND_ACCEPTOR>
22

> <PUBCHEM_CACTVS_HBOND_DONOR>
16

> <PUBCHEM_CACTVS_ROTATABLE_BOND>
10

> <PUBCHEM_CACTVS_SUBSKEYS>
AAADcfB8PgAAAAAAAAAAAAAAAAAAAAAAAAA0aMGDAAAAAACRVAAAGgAACAAADBSgmAIwDoAABgCIAiDSCAACCAAkIAAAiAEGiMgNJzKGNRqCeSGlwBULuYfK7PzOIAADCAAIQABAAAYQABCAAAAAAAAAAA==

> <PUBCHEM_IUPAC_OPENEYE_NAME>
[8-[[5,7-dihydroxy-3-(3,4,5-trihydroxybenzoyl)oxy-2-(3,4,5-trihydroxyphenyl)chroman-8-yl]methyl]-5,7-dihydroxy-2-(3,4,5-trihydroxyphenyl)chroman-3-yl] 3,4,5-trihydroxybenzoate

> <PUBCHEM_IUPAC_CAS_NAME>
3,4,5-trihydroxybenzoic acid [8-[[5,7-dihydroxy-3-[oxo-(3,4,5-trihydroxyphenyl)methoxy]-2-(3,4,5-trihydroxyphenyl)-3,4-dihydro-2H-1-benzopyran-8-yl]methyl]-5,7-dihydroxy-2-(3,4,5-trihydroxyphenyl)-3,4-dihydro-2H-1-benzopyran-3-yl] ester

> <PUBCHEM_IUPAC_NAME_MARKUP>
[8-[[5,7-dihydroxy-3-(3,4,5-trihydroxybenzoyl)oxy-2-(3,4,5-trihydroxyphenyl)-3,4-dihydro-2<I>H</I>-chromen-8-yl]methyl]-5,7-dihydroxy-2-(3,4,5-trihydroxyphenyl)-3,4-dihydro-2<I>H</I>-chromen-3-yl] 3,4,5-trihydroxybenzoate

> <PUBCHEM_IUPAC_NAME>
[8-[[5,7-dihydroxy-3-(3,4,5-trihydroxybenzoyl)oxy-2-(3,4,5-trihydroxyphenyl)-3,4-dihydro-2H-chromen-8-yl]methyl]-5,7-dihydroxy-2-(3,4,5-trihydroxyphenyl)-3,4-dihydro-2H-chromen-3-yl] 3,4,5-trihydroxybenzoate

> <PUBCHEM_IUPAC_SYSTEMATIC_NAME>
[8-[[5,7-bis(oxidanyl)-2-[3,4,5-tris(oxidanyl)phenyl]-3-[3,4,5-tris(oxidanyl)phenyl]carbonyloxy-3,4-dihydro-2H-chromen-8-yl]methyl]-5,7-bis(oxidanyl)-2-[3,4,5-tris(oxidanyl)phenyl]-3,4-dihydro-2H-chromen-3-yl] 3,4,5-tris(oxidanyl)benzoate

> <PUBCHEM_IUPAC_TRADITIONAL_NAME>
3,4,5-trihydroxybenzoic acid [8-[[3-galloyloxy-5,7-dihydroxy-2-(3,4,5-trihydroxyphenyl)chroman-8-yl]methyl]-5,7-dihydroxy-2-(3,4,5-trihydroxyphenyl)chroman-3-yl] ester

> <PUBCHEM_IUPAC_INCHI>
InChI=1S/C45H36O22/c46-22-12-24(48)20-10-34(64-44(62)16-5-30(54)38(60)31(55)6-16)40(14-1-26(50)36(58)27(51)2-14)66-42(20)18(22)9-19-23(47)13-25(49)21-11-35(65-45(63)17-7-32(56)39(61)33(57)8-17)41(67-43(19)21)15-3-28(52)37(59)29(53)4-15/h1-8,12-13,34-35,40-41,46-61H,9-11H2

> <PUBCHEM_IUPAC_INCHIKEY>
BJFGFQSYHAXQPO-UHFFFAOYSA-N

> <PUBCHEM_XLOGP3_AA>
4.5

> <PUBCHEM_EXACT_MASS>
928.16982277

> <PUBCHEM_MOLECULAR_FORMULA>
C45H36O22

> <PUBCHEM_MOLECULAR_WEIGHT>
928.8

> <PUBCHEM_OPENEYE_CAN_SMILES>
C1C(C(OC2=C1C(=CC(=C2CC3=C(C=C(C4=C3OC(C(C4)OC(=O)C5=CC(=C(C(=C5)O)O)O)C6=CC(=C(C(=C6)O)O)O)O)O)O)O)C7=CC(=C(C(=C7)O)O)O)OC(=O)C8=CC(=C(C(=C8)O)O)O

> <PUBCHEM_OPENEYE_ISO_SMILES>
C1C(C(OC2=C1C(=CC(=C2CC3=C(C=C(C4=C3OC(C(C4)OC(=O)C5=CC(=C(C(=C5)O)O)O)C6=CC(=C(C(=C6)O)O)O)O)O)O)O)C7=CC(=C(C(=C7)O)O)O)OC(=O)C8=CC(=C(C(=C8)O)O)O

> <PUBCHEM_CACTVS_TPSA>
395

> <PUBCHEM_MONOISOTOPIC_WEIGHT>
928.16982277

> <PUBCHEM_TOTAL_CHARGE>
0

> <PUBCHEM_HEAVY_ATOM_COUNT>
67

> <PUBCHEM_ATOM_DEF_STEREO_COUNT>
0

> <PUBCHEM_ATOM_UDEF_STEREO_COUNT>
4

> <PUBCHEM_BOND_DEF_STEREO_COUNT>
0

> <PUBCHEM_BOND_UDEF_STEREO_COUNT>
0

> <PUBCHEM_ISOTOPIC_ATOM_COUNT>
0

> <PUBCHEM_COMPONENT_COUNT>
1

> <PUBCHEM_CACTVS_TAUTO_COUNT>
-1

> <PUBCHEM_COORDINATE_TYPE>
1
5
255

> <PUBCHEM_BONDANNOTATIONS>
25  36  3
26  37  3
29  31  8
29  38  8
23  3  3
30  32  8
30  39  8
31  33  8
32  34  8
33  40  8
34  41  8
36  44  8
36  46  8
37  45  8
37  47  8
38  42  8
39  43  8
24  4  3
40  42  8
41  43  8
44  52  8
45  53  8
46  50  8
47  51  8
50  54  8
51  55  8
52  54  8
53  55  8
56  58  8
56  60  8
57  59  8
57  61  8
58  64  8
59  65  8
60  62  8
61  63  8
62  66  8
63  67  8
64  66  8
65  67  8

$$$$
