20-Epi-isoiguesterinol
  -OEChem-01222105073D

 69 73  0     1  0  0  0  0  0999 V2000
    5.8721    3.3587   -1.4300 O   0  0  0  0  0  0  0  0  0  0  0  0
   -6.8117    1.1038   -0.9090 O   0  0  0  0  0  0  0  0  0  0  0  0
   -5.2978    2.8711    0.4824 O   0  0  0  0  0  0  0  0  0  0  0  0
    1.5562    0.0051    0.4506 C   0  0  1  0  0  0  0  0  0  0  0  0
    3.1058   -0.1985    0.7591 C   0  0  1  0  0  0  0  0  0  0  0  0
    0.8195   -1.3959    0.3962 C   0  0  2  0  0  0  0  0  0  0  0  0
    3.8614   -1.2794   -0.1061 C   0  0  1  0  0  0  0  0  0  0  0  0
    1.5075   -2.2326   -0.7268 C   0  0  0  0  0  0  0  0  0  0  0  0
    2.9903   -2.5052   -0.4816 C   0  0  0  0  0  0  0  0  0  0  0  0
    0.8861    0.8446    1.5818 C   0  0  0  0  0  0  0  0  0  0  0  0
    3.9406    1.1111    0.8602 C   0  0  0  0  0  0  0  0  0  0  0  0
   -0.7109   -1.1763    0.1680 C   0  0  0  0  0  0  0  0  0  0  0  0
   -1.4822   -0.1680    1.0683 C   0  0  1  0  0  0  0  0  0  0  0  0
    4.4628   -0.6938   -1.4115 C   0  0  0  0  0  0  0  0  0  0  0  0
   -0.6107    1.0875    1.3583 C   0  0  0  0  0  0  0  0  0  0  0  0
    1.3486    0.8004   -0.8704 C   0  0  0  0  0  0  0  0  0  0  0  0
    4.5224    1.6449   -0.4559 C   0  0  2  0  0  0  0  0  0  0  0  0
    5.2951    0.5666   -1.2079 C   0  0  0  0  0  0  0  0  0  0  0  0
    0.9654   -2.2299    1.7040 C   0  0  0  0  0  0  0  0  0  0  0  0
    5.0487   -1.8406    0.7332 C   0  0  0  0  0  0  0  0  0  0  0  0
   -2.8421    0.2757    0.4308 C   0  0  0  0  0  0  0  0  0  0  0  0
   -1.3807   -1.8173   -0.8092 C   0  0  0  0  0  0  0  0  0  0  0  0
   -1.8791   -0.8383    2.4104 C   0  0  0  0  0  0  0  0  0  0  0  0
    5.4223    2.8542   -0.1878 C   0  0  0  0  0  0  0  0  0  0  0  0
   -3.4979   -0.6088   -0.5478 C   0  0  0  0  0  0  0  0  0  0  0  0
   -2.7789   -1.6143   -1.0786 C   0  0  0  0  0  0  0  0  0  0  0  0
   -3.4680    1.4179    0.7749 C   0  0  0  0  0  0  0  0  0  0  0  0
   -4.9073   -0.3885   -0.9299 C   0  0  0  0  0  0  0  0  0  0  0  0
   -4.8005    1.7768    0.2354 C   0  0  0  0  0  0  0  0  0  0  0  0
   -5.5209    0.7559   -0.5710 C   0  0  0  0  0  0  0  0  0  0  0  0
   -5.6160   -1.4871   -1.6901 C   0  0  0  0  0  0  0  0  0  0  0  0
    3.1122   -0.5847    1.7896 H   0  0  0  0  0  0  0  0  0  0  0  0
    1.3888   -1.7518   -1.7048 H   0  0  0  0  0  0  0  0  0  0  0  0
    1.0235   -3.2147   -0.8147 H   0  0  0  0  0  0  0  0  0  0  0  0
    3.0700   -3.2755    0.2957 H   0  0  0  0  0  0  0  0  0  0  0  0
    3.3997   -2.9966   -1.3751 H   0  0  0  0  0  0  0  0  0  0  0  0
    1.3504    1.8339    1.6549 H   0  0  0  0  0  0  0  0  0  0  0  0
    1.0447    0.3821    2.5615 H   0  0  0  0  0  0  0  0  0  0  0  0
    3.3706    1.9064    1.3474 H   0  0  0  0  0  0  0  0  0  0  0  0
    4.7773    0.9179    1.5462 H   0  0  0  0  0  0  0  0  0  0  0  0
    3.6764   -0.4889   -2.1427 H   0  0  0  0  0  0  0  0  0  0  0  0
    5.1035   -1.4454   -1.8929 H   0  0  0  0  0  0  0  0  0  0  0  0
   -0.9889    1.6094    2.2482 H   0  0  0  0  0  0  0  0  0  0  0  0
   -0.7126    1.8090    0.5361 H   0  0  0  0  0  0  0  0  0  0  0  0
    1.9290    0.4085   -1.7022 H   0  0  0  0  0  0  0  0  0  0  0  0
    0.3087    0.7952   -1.2111 H   0  0  0  0  0  0  0  0  0  0  0  0
    1.6159    1.8542   -0.7414 H   0  0  0  0  0  0  0  0  0  0  0  0
    3.7168    1.9835   -1.1137 H   0  0  0  0  0  0  0  0  0  0  0  0
    6.2218    0.3213   -0.6757 H   0  0  0  0  0  0  0  0  0  0  0  0
    5.6034    0.9370   -2.1935 H   0  0  0  0  0  0  0  0  0  0  0  0
    1.9951   -2.5229    1.9203 H   0  0  0  0  0  0  0  0  0  0  0  0
    0.6415   -1.7022    2.5977 H   0  0  0  0  0  0  0  0  0  0  0  0
    0.3795   -3.1552    1.6404 H   0  0  0  0  0  0  0  0  0  0  0  0
    4.6893   -2.3150    1.6539 H   0  0  0  0  0  0  0  0  0  0  0  0
    5.6047   -2.5992    0.1698 H   0  0  0  0  0  0  0  0  0  0  0  0
    5.7612   -1.0661    1.0301 H   0  0  0  0  0  0  0  0  0  0  0  0
   -0.9040   -2.5294   -1.4720 H   0  0  0  0  0  0  0  0  0  0  0  0
   -1.0679   -0.8287    3.1412 H   0  0  0  0  0  0  0  0  0  0  0  0
   -2.7078   -0.3122    2.9012 H   0  0  0  0  0  0  0  0  0  0  0  0
   -2.1989   -1.8773    2.2672 H   0  0  0  0  0  0  0  0  0  0  0  0
    6.2918    2.5803    0.4191 H   0  0  0  0  0  0  0  0  0  0  0  0
    4.8668    3.6443    0.3280 H   0  0  0  0  0  0  0  0  0  0  0  0
   -3.1929   -2.3047   -1.8070 H   0  0  0  0  0  0  0  0  0  0  0  0
   -3.0534    2.1166    1.4923 H   0  0  0  0  0  0  0  0  0  0  0  0
    6.4387    4.1258   -1.2403 H   0  0  0  0  0  0  0  0  0  0  0  0
   -5.5441   -2.4419   -1.1578 H   0  0  0  0  0  0  0  0  0  0  0  0
   -5.1970   -1.5997   -2.6956 H   0  0  0  0  0  0  0  0  0  0  0  0
   -6.6838   -1.2747   -1.8112 H   0  0  0  0  0  0  0  0  0  0  0  0
   -6.9977    1.9793   -0.5284 H   0  0  0  0  0  0  0  0  0  0  0  0
  1 24  1  0  0  0  0
  1 65  1  0  0  0  0
  2 30  1  0  0  0  0
  2 69  1  0  0  0  0
  3 29  2  0  0  0  0
  4  5  1  0  0  0  0
  4  6  1  0  0  0  0
  4 10  1  0  0  0  0
  4 16  1  0  0  0  0
  5  7  1  0  0  0  0
  5 11  1  0  0  0  0
  5 32  1  0  0  0  0
  6  8  1  0  0  0  0
  6 12  1  0  0  0  0
  6 19  1  0  0  0  0
  7  9  1  0  0  0  0
  7 14  1  0  0  0  0
  7 20  1  0  0  0  0
  8  9  1  0  0  0  0
  8 33  1  0  0  0  0
  8 34  1  0  0  0  0
  9 35  1  0  0  0  0
  9 36  1  0  0  0  0
 10 15  1  0  0  0  0
 10 37  1  0  0  0  0
 10 38  1  0  0  0  0
 11 17  1  0  0  0  0
 11 39  1  0  0  0  0
 11 40  1  0  0  0  0
 12 13  1  0  0  0  0
 12 22  2  0  0  0  0
 13 15  1  0  0  0  0
 13 21  1  0  0  0  0
 13 23  1  0  0  0  0
 14 18  1  0  0  0  0
 14 41  1  0  0  0  0
 14 42  1  0  0  0  0
 15 43  1  0  0  0  0
 15 44  1  0  0  0  0
 16 45  1  0  0  0  0
 16 46  1  0  0  0  0
 16 47  1  0  0  0  0
 17 18  1  0  0  0  0
 17 24  1  0  0  0  0
 17 48  1  0  0  0  0
 18 49  1  0  0  0  0
 18 50  1  0  0  0  0
 19 51  1  0  0  0  0
 19 52  1  0  0  0  0
 19 53  1  0  0  0  0
 20 54  1  0  0  0  0
 20 55  1  0  0  0  0
 20 56  1  0  0  0  0
 21 25  1  0  0  0  0
 21 27  2  0  0  0  0
 22 26  1  0  0  0  0
 22 57  1  0  0  0  0
 23 58  1  0  0  0  0
 23 59  1  0  0  0  0
 23 60  1  0  0  0  0
 24 61  1  0  0  0  0
 24 62  1  0  0  0  0
 25 26  2  0  0  0  0
 25 28  1  0  0  0  0
 26 63  1  0  0  0  0
 27 29  1  0  0  0  0
 27 64  1  0  0  0  0
 28 30  2  0  0  0  0
 28 31  1  0  0  0  0
 29 30  1  0  0  0  0
 31 66  1  0  0  0  0
 31 67  1  0  0  0  0
 31 68  1  0  0  0  0
M  END
> <PUBCHEM_COMPOUND_CID>
21575471

> <PUBCHEM_CONFORMER_RMSD>
0.8

> <PUBCHEM_CONFORMER_DIVERSEORDER>
1

> <PUBCHEM_MMFF94_PARTIAL_CHARGES>
20
1 -0.68
12 -0.28
13 0.28
2 -0.53
21 -0.14
22 -0.15
24 0.28
26 -0.15
27 -0.14
28 -0.14
29 0.54
3 -0.57
30 0.09
31 0.14
57 0.15
6 0.14
63 0.15
64 0.15
65 0.4
69 0.45

> <PUBCHEM_EFFECTIVE_ROTOR_COUNT>
2.6

> <PUBCHEM_PHARMACOPHORE_FEATURES>
9
1 1 acceptor
1 1 donor
1 2 donor
1 3 acceptor
6 12 13 21 22 25 26 rings
6 21 25 27 28 29 30 rings
6 4 5 6 7 8 9 rings
6 4 6 10 12 13 15 rings
6 5 7 11 14 17 18 rings

> <PUBCHEM_HEAVY_ATOM_COUNT>
31

> <PUBCHEM_ATOM_DEF_STEREO_COUNT>
6

> <PUBCHEM_ATOM_UDEF_STEREO_COUNT>
0

> <PUBCHEM_BOND_DEF_STEREO_COUNT>
0

> <PUBCHEM_BOND_UDEF_STEREO_COUNT>
0

> <PUBCHEM_ISOTOPIC_ATOM_COUNT>
0

> <PUBCHEM_COMPONENT_COUNT>
1

> <PUBCHEM_CACTVS_TAUTO_COUNT>
8

> <PUBCHEM_CONFORMER_ID>
0149372F00000001

> <PUBCHEM_MMFF94_ENERGY>
130.8212

> <PUBCHEM_FEATURE_SELFOVERLAP>
45.754

> <PUBCHEM_SHAPE_FINGERPRINT>
10 15 13695589970402370028
10595046 47 18341890805653659279
11578080 2 17096105674520771266
11961588 58 18335134323690908379
12236239 1 18411974728695670427
12633257 1 15502383373599558860
12788726 201 17130995261291944177
13224815 77 18341060683001832106
13690498 29 17630601447973342943
13782708 43 14117219712250497349
13944108 23 16610255314549121321
14068700 675 17841431437116495938
14528608 73 18342176674128634604
14790565 3 18340488851008231777
14931854 50 17988095490755996452
15082195 135 18270961353411710480
15183329 4 18202001006324467293
15840311 113 18261678069749116741
17492 54 18059298763715180218
17959699 21 18412262813542244394
18608769 82 18267869561432806427
18681886 176 17917419909587682274
1979834 28 13767920200712073080
20511986 3 18200014180160032770
21033648 144 17894628183993149967
21033648 29 16081079364649731231
22393880 68 17917708011044179085
23522609 53 17845393106228289729
23559900 14 17274809255705479922
23569914 152 16769879272704890604
23569914 2 16881275344285990029
255183 451 16980663744206875303
2838139 119 18261110717026734181
3004659 81 18272649009465790122
34797466 226 17846506936580152357
474 4 18186802499679356650
5104073 3 17749110010727824482
57724786 102 18040437707209330308
633830 44 18333168362672952106

> <PUBCHEM_SHAPE_MULTIPOLES>
620.36
14.43
2.93
1.63
5.65
1.03
-0.41
7.97
6.41
-2.32
0.43
0.12
-0.22
-1.8

> <PUBCHEM_SHAPE_SELFOVERLAP>
1341.446

> <PUBCHEM_SHAPE_VOLUME>
336.6

> <PUBCHEM_COORDINATE_TYPE>
2
5
10

$$$$
