26,27-Dinorergost-5-ene-3,24-diol, (3.beta)-
  -OEChem-12152007043D

 77 80  0     1  0  0  0  0  0999 V2000
    7.1034   -0.0157   -0.1865 O   0  0  0  0  0  0  0  0  0  0  0  0
   -8.1187   -1.2174   -0.3333 O   0  0  0  0  0  0  0  0  0  0  0  0
    7.6831    0.8389    1.8799 O   0  0  0  0  0  0  0  0  0  0  0  0
   -1.6349    0.2100   -0.2591 C   0  0  1  0  0  0  0  0  0  0  0  0
   -0.8107   -0.9693    0.2950 C   0  0  2  0  0  0  0  0  0  0  0  0
    0.6061   -1.0426   -0.2829 C   0  0  1  0  0  0  0  0  0  0  0  0
    1.3580    0.2878    0.0133 C   0  0  1  0  0  0  0  0  0  0  0  0
   -2.9742   -0.0596    0.4694 C   0  0  2  0  0  0  0  0  0  0  0  0
   -0.9251    1.5053    0.1588 C   0  0  0  0  0  0  0  0  0  0  0  0
    2.8160    0.2770   -0.5986 C   0  0  2  0  0  0  0  0  0  0  0  0
   -1.7368   -2.1697    0.1256 C   0  0  0  0  0  0  0  0  0  0  0  0
    0.5237    1.5450   -0.3572 C   0  0  0  0  0  0  0  0  0  0  0  0
   -3.1444   -1.5937    0.3672 C   0  0  0  0  0  0  0  0  0  0  0  0
    1.3765   -2.2293    0.3150 C   0  0  0  0  0  0  0  0  0  0  0  0
   -4.1893    0.7058   -0.0345 C   0  0  1  0  0  0  0  0  0  0  0  0
   -1.8201    0.1824   -1.7966 C   0  0  0  0  0  0  0  0  0  0  0  0
    3.5125   -1.0636   -0.3255 C   0  0  0  0  0  0  0  0  0  0  0  0
    3.6342    1.4220    0.0698 C   0  0  0  0  0  0  0  0  0  0  0  0
    2.8532   -2.1578    0.0929 C   0  0  0  0  0  0  0  0  0  0  0  0
    2.7853    0.4961   -2.1304 C   0  0  0  0  0  0  0  0  0  0  0  0
    5.0075   -1.1201   -0.5390 C   0  0  0  0  0  0  0  0  0  0  0  0
    5.1351    1.3728   -0.2136 C   0  0  0  0  0  0  0  0  0  0  0  0
   -5.5243    0.0517    0.3836 C   0  0  0  0  0  0  0  0  0  0  0  0
    5.7262    0.0211    0.1738 C   0  0  2  0  0  0  0  0  0  0  0  0
   -4.1491    2.1500    0.4789 C   0  0  0  0  0  0  0  0  0  0  0  0
   -6.7561    0.7857   -0.1686 C   0  0  0  0  0  0  0  0  0  0  0  0
   -8.1035    0.1166    0.1787 C   0  0  0  0  0  0  0  0  0  0  0  0
   -8.3401    0.0310    1.6872 C   0  0  0  0  0  0  0  0  0  0  0  0
   -9.2527    0.8855   -0.4816 C   0  0  0  0  0  0  0  0  0  0  0  0
    7.9777    0.4247    0.7669 C   0  0  0  0  0  0  0  0  0  0  0  0
    9.3816    0.3294    0.2513 C   0  0  0  0  0  0  0  0  0  0  0  0
   -0.6967   -0.8255    1.3830 H   0  0  0  0  0  0  0  0  0  0  0  0
    0.5493   -1.1986   -1.3659 H   0  0  0  0  0  0  0  0  0  0  0  0
    1.4720    0.3291    1.1090 H   0  0  0  0  0  0  0  0  0  0  0  0
   -2.8447    0.1660    1.5393 H   0  0  0  0  0  0  0  0  0  0  0  0
   -0.9219    1.6116    1.2506 H   0  0  0  0  0  0  0  0  0  0  0  0
   -1.4152    2.3883   -0.2537 H   0  0  0  0  0  0  0  0  0  0  0  0
   -1.5065   -2.9681    0.8385 H   0  0  0  0  0  0  0  0  0  0  0  0
   -1.6630   -2.5936   -0.8823 H   0  0  0  0  0  0  0  0  0  0  0  0
    0.4966    1.6794   -1.4426 H   0  0  0  0  0  0  0  0  0  0  0  0
    1.0043    2.4413    0.0508 H   0  0  0  0  0  0  0  0  0  0  0  0
   -3.7729   -1.8963   -0.4772 H   0  0  0  0  0  0  0  0  0  0  0  0
   -3.5851   -2.0024    1.2831 H   0  0  0  0  0  0  0  0  0  0  0  0
    0.9992   -3.1597   -0.1265 H   0  0  0  0  0  0  0  0  0  0  0  0
    1.2022   -2.2986    1.3960 H   0  0  0  0  0  0  0  0  0  0  0  0
   -4.1996    0.7376   -1.1285 H   0  0  0  0  0  0  0  0  0  0  0  0
   -2.4277   -0.6640   -2.1320 H   0  0  0  0  0  0  0  0  0  0  0  0
   -0.8698    0.1172   -2.3333 H   0  0  0  0  0  0  0  0  0  0  0  0
   -2.3062    1.0988   -2.1498 H   0  0  0  0  0  0  0  0  0  0  0  0
    3.4968    1.3839    1.1591 H   0  0  0  0  0  0  0  0  0  0  0  0
    3.2573    2.3995   -0.2540 H   0  0  0  0  0  0  0  0  0  0  0  0
    3.4051   -3.0737    0.2902 H   0  0  0  0  0  0  0  0  0  0  0  0
    2.4380    1.5018   -2.3884 H   0  0  0  0  0  0  0  0  0  0  0  0
    3.7757    0.3919   -2.5861 H   0  0  0  0  0  0  0  0  0  0  0  0
    2.1308   -0.2246   -2.6312 H   0  0  0  0  0  0  0  0  0  0  0  0
    5.4297   -2.0730   -0.1939 H   0  0  0  0  0  0  0  0  0  0  0  0
    5.2278   -1.0882   -1.6136 H   0  0  0  0  0  0  0  0  0  0  0  0
    5.3361    1.5840   -1.2711 H   0  0  0  0  0  0  0  0  0  0  0  0
    5.6384    2.1732    0.3422 H   0  0  0  0  0  0  0  0  0  0  0  0
   -5.5709    0.0162    1.4783 H   0  0  0  0  0  0  0  0  0  0  0  0
   -5.5790   -0.9806    0.0284 H   0  0  0  0  0  0  0  0  0  0  0  0
    5.6058   -0.1352    1.2549 H   0  0  0  0  0  0  0  0  0  0  0  0
   -4.1744    2.1860    1.5734 H   0  0  0  0  0  0  0  0  0  0  0  0
   -3.2734    2.6951    0.1414 H   0  0  0  0  0  0  0  0  0  0  0  0
   -4.9877    2.7429    0.1052 H   0  0  0  0  0  0  0  0  0  0  0  0
   -6.7955    1.8126    0.2071 H   0  0  0  0  0  0  0  0  0  0  0  0
   -6.6561    0.8376   -1.2607 H   0  0  0  0  0  0  0  0  0  0  0  0
   -9.3344   -0.3774    1.9036 H   0  0  0  0  0  0  0  0  0  0  0  0
   -8.2648    1.0142    2.1629 H   0  0  0  0  0  0  0  0  0  0  0  0
   -7.6291   -0.6491    2.1679 H   0  0  0  0  0  0  0  0  0  0  0  0
   -9.1345    0.9000   -1.5711 H   0  0  0  0  0  0  0  0  0  0  0  0
  -10.2162    0.4018   -0.2834 H   0  0  0  0  0  0  0  0  0  0  0  0
   -9.3046    1.9189   -0.1237 H   0  0  0  0  0  0  0  0  0  0  0  0
   -8.9795   -1.6151   -0.1176 H   0  0  0  0  0  0  0  0  0  0  0  0
    9.6207   -0.7112    0.0183 H   0  0  0  0  0  0  0  0  0  0  0  0
   10.0751    0.6827    1.0198 H   0  0  0  0  0  0  0  0  0  0  0  0
    9.4940    0.9586   -0.6352 H   0  0  0  0  0  0  0  0  0  0  0  0
  1 24  1  0  0  0  0
  1 30  1  0  0  0  0
  2 27  1  0  0  0  0
  2 74  1  0  0  0  0
  3 30  2  0  0  0  0
  4  5  1  0  0  0  0
  4  8  1  0  0  0  0
  4  9  1  0  0  0  0
  4 16  1  0  0  0  0
  5  6  1  0  0  0  0
  5 11  1  0  0  0  0
  5 32  1  0  0  0  0
  6  7  1  0  0  0  0
  6 14  1  0  0  0  0
  6 33  1  0  0  0  0
  7 10  1  0  0  0  0
  7 12  1  0  0  0  0
  7 34  1  0  0  0  0
  8 13  1  0  0  0  0
  8 15  1  0  0  0  0
  8 35  1  0  0  0  0
  9 12  1  0  0  0  0
  9 36  1  0  0  0  0
  9 37  1  0  0  0  0
 10 17  1  0  0  0  0
 10 18  1  0  0  0  0
 10 20  1  0  0  0  0
 11 13  1  0  0  0  0
 11 38  1  0  0  0  0
 11 39  1  0  0  0  0
 12 40  1  0  0  0  0
 12 41  1  0  0  0  0
 13 42  1  0  0  0  0
 13 43  1  0  0  0  0
 14 19  1  0  0  0  0
 14 44  1  0  0  0  0
 14 45  1  0  0  0  0
 15 23  1  0  0  0  0
 15 25  1  0  0  0  0
 15 46  1  0  0  0  0
 16 47  1  0  0  0  0
 16 48  1  0  0  0  0
 16 49  1  0  0  0  0
 17 19  2  0  0  0  0
 17 21  1  0  0  0  0
 18 22  1  0  0  0  0
 18 50  1  0  0  0  0
 18 51  1  0  0  0  0
 19 52  1  0  0  0  0
 20 53  1  0  0  0  0
 20 54  1  0  0  0  0
 20 55  1  0  0  0  0
 21 24  1  0  0  0  0
 21 56  1  0  0  0  0
 21 57  1  0  0  0  0
 22 24  1  0  0  0  0
 22 58  1  0  0  0  0
 22 59  1  0  0  0  0
 23 26  1  0  0  0  0
 23 60  1  0  0  0  0
 23 61  1  0  0  0  0
 24 62  1  0  0  0  0
 25 63  1  0  0  0  0
 25 64  1  0  0  0  0
 25 65  1  0  0  0  0
 26 27  1  0  0  0  0
 26 66  1  0  0  0  0
 26 67  1  0  0  0  0
 27 28  1  0  0  0  0
 27 29  1  0  0  0  0
 28 69  1  0  0  0  0
 28 70  1  0  0  0  0
 28 72  1  0  0  0  0
 29 68  1  0  0  0  0
 29 71  1  0  0  0  0
 29 73  1  0  0  0  0
 30 31  1  0  0  0  0
 31 75  1  0  0  0  0
 31 76  1  0  0  0  0
 31 77  1  0  0  0  0
M  END
> <PUBCHEM_COMPOUND_CID>
91744098

> <PUBCHEM_CONFORMER_RMSD>
1

> <PUBCHEM_CONFORMER_DIVERSEORDER>
1
5
16
4
15
14
3
2
13
9
8
6
7
12
10
11

> <PUBCHEM_MMFF94_PARTIAL_CHARGES>
14
1 -0.43
10 0.14
14 0.14
17 -0.28
19 -0.29
2 -0.68
21 0.14
24 0.28
27 0.28
3 -0.57
30 0.66
31 0.06
52 0.15
74 0.4

> <PUBCHEM_EFFECTIVE_ROTOR_COUNT>
8

> <PUBCHEM_PHARMACOPHORE_FEATURES>
9
1 2 acceptor
1 2 donor
1 25 hydrophobe
1 3 acceptor
3 27 28 29 hydrophobe
5 4 5 8 11 13 rings
6 10 17 18 21 22 24 rings
6 4 5 6 7 9 12 rings
6 6 7 10 14 17 19 rings

> <PUBCHEM_HEAVY_ATOM_COUNT>
31

> <PUBCHEM_ATOM_DEF_STEREO_COUNT>
8

> <PUBCHEM_ATOM_UDEF_STEREO_COUNT>
0

> <PUBCHEM_BOND_DEF_STEREO_COUNT>
0

> <PUBCHEM_BOND_UDEF_STEREO_COUNT>
0

> <PUBCHEM_ISOTOPIC_ATOM_COUNT>
0

> <PUBCHEM_COMPONENT_COUNT>
1

> <PUBCHEM_CACTVS_TAUTO_COUNT>
1

> <PUBCHEM_CONFORMER_ID>
0577E76200000001

> <PUBCHEM_MMFF94_ENERGY>
96.1566

> <PUBCHEM_FEATURE_SELFOVERLAP>
45.767

> <PUBCHEM_SHAPE_FINGERPRINT>
10 15 18040436611971525208
10076449 9 9223232953393384499
10162869 55 18334289899288524671
106641 1 17775284975964457829
12236239 1 18060423495987023593
12592606 108 8286192843487238321
12741549 16 16950278503310943924
12838862 33 18336815446852207047
13073987 5 18339926996240030401
13383668 254 16414925261329367107
13811026 1 18411137991719698390
14251764 18 18201443567019957937
14251764 46 18259703401956036536
14849402 71 18272094929026543753
15131766 46 15866632965883537374
15183329 4 18343302549104423787
15247644 1 14706928449475356721
15840311 113 18040720295025890668
15849732 13 18202846552415124253
18608769 82 18410855495242462731
19301679 30 16443892862020415720
2026 5 12541513928028758416
20771845 171 16878517739886768006
21033648 29 17916287485994210962
21150785 3 15410895162672612625
21267235 1 18338525135762214887
21792934 111 18408599275496505824
22224240 67 18410009940139930338
23559900 14 18340764931089560408
24771293 8 18271814488820225433
24893992 56 18410572928895633819
249057 3 18335985345669824764
335352 9 18409451405718656316
34797466 226 17203614774021539388
4073 2 17968666032832928147
4093350 32 17561367245176486678
4325135 7 18342175565895190461
4340502 62 18334298664963347655
5104073 3 18261117309585198042
59682541 35 18409449201978420977
6081469 158 13262395557312466871

> <PUBCHEM_SHAPE_MULTIPOLES>
620.36
26.35
1.89
1.15
10.57
0.57
-0.16
-5.75
6.78
0.01
0.11
-0.28
-0.19
0.42

> <PUBCHEM_SHAPE_SELFOVERLAP>
1290.409

> <PUBCHEM_SHAPE_VOLUME>
352.9

> <PUBCHEM_COORDINATE_TYPE>
2
5
10

$$$$
