3.beta-Hydroxy-5-cholen-24-oic acid
  -OEChem-12152007043D

 65 68  0     1  0  0  0  0  0999 V2000
    7.5522    0.5446    0.0424 O   0  0  0  0  0  0  0  0  0  0  0  0
   -7.3893    1.4527   -0.9207 O   0  0  0  0  0  0  0  0  0  0  0  0
   -6.4212   -0.5500   -1.3773 O   0  0  0  0  0  0  0  0  0  0  0  0
   -1.1760    0.0443    0.0647 C   0  0  1  0  0  0  0  0  0  0  0  0
   -0.2506   -1.1444    0.3926 C   0  0  2  0  0  0  0  0  0  0  0  0
    1.1549   -0.9990   -0.1995 C   0  0  1  0  0  0  0  0  0  0  0  0
    1.8068    0.3133    0.3257 C   0  0  1  0  0  0  0  0  0  0  0  0
   -2.4742   -0.4582    0.7425 C   0  0  2  0  0  0  0  0  0  0  0  0
   -0.5609    1.2973    0.7034 C   0  0  0  0  0  0  0  0  0  0  0  0
    3.2479    0.5294   -0.2884 C   0  0  2  0  0  0  0  0  0  0  0  0
   -1.0835   -2.3666    0.0179 C   0  0  0  0  0  0  0  0  0  0  0  0
    0.8692    1.5450    0.1927 C   0  0  0  0  0  0  0  0  0  0  0  0
   -2.5267   -1.9577    0.3665 C   0  0  0  0  0  0  0  0  0  0  0  0
    2.0282   -2.2077    0.1692 C   0  0  0  0  0  0  0  0  0  0  0  0
   -3.7558    0.2849    0.3940 C   0  0  1  0  0  0  0  0  0  0  0  0
   -1.3913    0.2762   -1.4515 C   0  0  0  0  0  0  0  0  0  0  0  0
    4.0528   -0.7777   -0.2657 C   0  0  0  0  0  0  0  0  0  0  0  0
    3.9884    1.5989    0.5692 C   0  0  0  0  0  0  0  0  0  0  0  0
    3.4898   -1.9787   -0.0464 C   0  0  0  0  0  0  0  0  0  0  0  0
    3.1674    1.0153   -1.7556 C   0  0  0  0  0  0  0  0  0  0  0  0
    5.5429   -0.6747   -0.4960 C   0  0  0  0  0  0  0  0  0  0  0  0
    5.4817    1.7222    0.2702 C   0  0  0  0  0  0  0  0  0  0  0  0
   -4.9576   -0.3626    1.1120 C   0  0  0  0  0  0  0  0  0  0  0  0
    6.1853    0.3765    0.4048 C   0  0  2  0  0  0  0  0  0  0  0  0
   -3.6120    1.7706    0.7399 C   0  0  0  0  0  0  0  0  0  0  0  0
   -6.2823    0.3654    0.8752 C   0  0  0  0  0  0  0  0  0  0  0  0
   -6.6861    0.3405   -0.5818 C   0  0  0  0  0  0  0  0  0  0  0  0
   -0.1245   -1.1883    1.4879 H   0  0  0  0  0  0  0  0  0  0  0  0
    1.0860   -0.9622   -1.2925 H   0  0  0  0  0  0  0  0  0  0  0  0
    1.9407    0.1672    1.4101 H   0  0  0  0  0  0  0  0  0  0  0  0
   -2.3351   -0.4054    1.8337 H   0  0  0  0  0  0  0  0  0  0  0  0
   -0.5300    1.1903    1.7953 H   0  0  0  0  0  0  0  0  0  0  0  0
   -1.1175    2.2100    0.4961 H   0  0  0  0  0  0  0  0  0  0  0  0
   -0.7768   -3.2578    0.5749 H   0  0  0  0  0  0  0  0  0  0  0  0
   -0.9992   -2.5977   -1.0498 H   0  0  0  0  0  0  0  0  0  0  0  0
    0.8094    1.8714   -0.8497 H   0  0  0  0  0  0  0  0  0  0  0  0
    1.2876    2.3882    0.7541 H   0  0  0  0  0  0  0  0  0  0  0  0
   -3.1764   -2.1493   -0.4951 H   0  0  0  0  0  0  0  0  0  0  0  0
   -2.9048   -2.5531    1.2051 H   0  0  0  0  0  0  0  0  0  0  0  0
    1.7153   -3.0711   -0.4303 H   0  0  0  0  0  0  0  0  0  0  0  0
    1.8827   -2.4834    1.2212 H   0  0  0  0  0  0  0  0  0  0  0  0
   -3.9417    0.2123   -0.6839 H   0  0  0  0  0  0  0  0  0  0  0  0
   -1.9867    1.1741   -1.6423 H   0  0  0  0  0  0  0  0  0  0  0  0
   -0.4509    0.4132   -1.9923 H   0  0  0  0  0  0  0  0  0  0  0  0
   -1.9068   -0.5614   -1.9322 H   0  0  0  0  0  0  0  0  0  0  0  0
    3.8783    1.3553    1.6348 H   0  0  0  0  0  0  0  0  0  0  0  0
    3.5292    2.5848    0.4295 H   0  0  0  0  0  0  0  0  0  0  0  0
    4.1155   -2.8677   -0.0209 H   0  0  0  0  0  0  0  0  0  0  0  0
    2.7378    2.0198   -1.8262 H   0  0  0  0  0  0  0  0  0  0  0  0
    4.1528    1.0737   -2.2298 H   0  0  0  0  0  0  0  0  0  0  0  0
    2.5600    0.3456   -2.3730 H   0  0  0  0  0  0  0  0  0  0  0  0
    6.0444   -1.6369   -0.3295 H   0  0  0  0  0  0  0  0  0  0  0  0
    5.7381   -0.4347   -1.5488 H   0  0  0  0  0  0  0  0  0  0  0  0
    5.6422    2.1355   -0.7333 H   0  0  0  0  0  0  0  0  0  0  0  0
    5.9388    2.4451    0.9574 H   0  0  0  0  0  0  0  0  0  0  0  0
   -5.0722   -1.4053    0.7935 H   0  0  0  0  0  0  0  0  0  0  0  0
   -4.7691   -0.3841    2.1930 H   0  0  0  0  0  0  0  0  0  0  0  0
    6.1545    0.0489    1.4513 H   0  0  0  0  0  0  0  0  0  0  0  0
   -3.1918    1.9207    1.7394 H   0  0  0  0  0  0  0  0  0  0  0  0
   -3.0097    2.2946   -0.0030 H   0  0  0  0  0  0  0  0  0  0  0  0
   -4.5626    2.3062    0.7068 H   0  0  0  0  0  0  0  0  0  0  0  0
   -7.0756   -0.1534    1.4273 H   0  0  0  0  0  0  0  0  0  0  0  0
   -6.2671    1.3896    1.2543 H   0  0  0  0  0  0  0  0  0  0  0  0
    7.9884   -0.3193    0.1370 H   0  0  0  0  0  0  0  0  0  0  0  0
   -7.6509    1.4454   -1.8661 H   0  0  0  0  0  0  0  0  0  0  0  0
  1 24  1  0  0  0  0
  1 64  1  0  0  0  0
  2 27  1  0  0  0  0
  2 65  1  0  0  0  0
  3 27  2  0  0  0  0
  4  5  1  0  0  0  0
  4  8  1  0  0  0  0
  4  9  1  0  0  0  0
  4 16  1  0  0  0  0
  5  6  1  0  0  0  0
  5 11  1  0  0  0  0
  5 28  1  0  0  0  0
  6  7  1  0  0  0  0
  6 14  1  0  0  0  0
  6 29  1  0  0  0  0
  7 10  1  0  0  0  0
  7 12  1  0  0  0  0
  7 30  1  0  0  0  0
  8 13  1  0  0  0  0
  8 15  1  0  0  0  0
  8 31  1  0  0  0  0
  9 12  1  0  0  0  0
  9 32  1  0  0  0  0
  9 33  1  0  0  0  0
 10 17  1  0  0  0  0
 10 18  1  0  0  0  0
 10 20  1  0  0  0  0
 11 13  1  0  0  0  0
 11 34  1  0  0  0  0
 11 35  1  0  0  0  0
 12 36  1  0  0  0  0
 12 37  1  0  0  0  0
 13 38  1  0  0  0  0
 13 39  1  0  0  0  0
 14 19  1  0  0  0  0
 14 40  1  0  0  0  0
 14 41  1  0  0  0  0
 15 23  1  0  0  0  0
 15 25  1  0  0  0  0
 15 42  1  0  0  0  0
 16 43  1  0  0  0  0
 16 44  1  0  0  0  0
 16 45  1  0  0  0  0
 17 19  2  0  0  0  0
 17 21  1  0  0  0  0
 18 22  1  0  0  0  0
 18 46  1  0  0  0  0
 18 47  1  0  0  0  0
 19 48  1  0  0  0  0
 20 49  1  0  0  0  0
 20 50  1  0  0  0  0
 20 51  1  0  0  0  0
 21 24  1  0  0  0  0
 21 52  1  0  0  0  0
 21 53  1  0  0  0  0
 22 24  1  0  0  0  0
 22 54  1  0  0  0  0
 22 55  1  0  0  0  0
 23 26  1  0  0  0  0
 23 56  1  0  0  0  0
 23 57  1  0  0  0  0
 24 58  1  0  0  0  0
 25 59  1  0  0  0  0
 25 60  1  0  0  0  0
 25 61  1  0  0  0  0
 26 27  1  0  0  0  0
 26 62  1  0  0  0  0
 26 63  1  0  0  0  0
M  END
> <PUBCHEM_COMPOUND_CID>
92997

> <PUBCHEM_CONFORMER_RMSD>
0.8

> <PUBCHEM_CONFORMER_DIVERSEORDER>
1
5
4
3
2

> <PUBCHEM_MMFF94_PARTIAL_CHARGES>
14
1 -0.68
10 0.14
14 0.14
17 -0.28
19 -0.29
2 -0.65
21 0.14
24 0.28
26 0.06
27 0.66
3 -0.57
48 0.15
64 0.4
65 0.5

> <PUBCHEM_EFFECTIVE_ROTOR_COUNT>
6

> <PUBCHEM_PHARMACOPHORE_FEATURES>
10
1 1 acceptor
1 1 donor
1 2 acceptor
1 25 hydrophobe
1 3 acceptor
3 2 3 27 anion
5 4 5 8 11 13 rings
6 10 17 18 21 22 24 rings
6 4 5 6 7 9 12 rings
6 6 7 10 14 17 19 rings

> <PUBCHEM_HEAVY_ATOM_COUNT>
27

> <PUBCHEM_ATOM_DEF_STEREO_COUNT>
8

> <PUBCHEM_ATOM_UDEF_STEREO_COUNT>
0

> <PUBCHEM_BOND_DEF_STEREO_COUNT>
0

> <PUBCHEM_BOND_UDEF_STEREO_COUNT>
0

> <PUBCHEM_ISOTOPIC_ATOM_COUNT>
0

> <PUBCHEM_COMPONENT_COUNT>
1

> <PUBCHEM_CACTVS_TAUTO_COUNT>
1

> <PUBCHEM_CONFORMER_ID>
00016B4500000001

> <PUBCHEM_MMFF94_ENERGY>
82.2972

> <PUBCHEM_FEATURE_SELFOVERLAP>
50.899

> <PUBCHEM_SHAPE_FINGERPRINT>
10 15 18113617919862474768
10411042 1 17762621694801596314
11089746 13 17917994996500951521
12011746 2 18409731746908260073
12236239 1 17632860806649308675
12516196 113 17561363984847825184
12788726 201 17202775803894923064
12838862 33 18339910581138691416
13140716 1 18194689395644195488
13533116 47 18131072584995742066
14117953 113 18333735710820253332
14251764 18 17989489614836844160
14294032 229 14563637787788023655
14787075 74 18202283585376766155
15131766 46 16373281340141798196
15142383 8 17458059365870891228
15183329 4 18060697282750702511
15196674 1 18340211782267046994
15461852 350 18130508633897904559
15849732 13 18260550034726225309
18608769 82 18338239379547330619
20511986 3 18340476846237406147
21033648 29 17821728317589792341
21150785 3 16343702149097174129
21267235 1 18340219509309137042
21298829 104 18411422778586173313
21792934 111 18337378336892351650
21859007 373 17677038062893674325
22224240 67 18341326769400436266
23035841 295 8070028856701507601
23402539 116 18202281446609555590
23559900 14 18270677679437663721
255183 451 17699860518889467534
2838139 119 18408884045087269597
3004659 81 18334580122828539986
335352 9 18412830188351178414
34797466 226 17060065855966827149
34934 24 18341613741392395442
350125 39 18408042900826037736
3545911 37 18410015438056505490
3633792 109 18341895139296824833
4073 2 18187652465756013802
4325135 7 18202843253400303109
4340502 62 18408891736777519874
5104073 3 18263656082102388667
59755656 215 18408608037524701582
59755656 520 18410849988430062999
6009941 240 17603871121689091227

> <PUBCHEM_SHAPE_MULTIPOLES>
538.04
17.29
2.08
1.09
8.96
0.65
-0.33
-5.42
-1.48
-0.7
0.18
0.77
-0.21
0.3

> <PUBCHEM_SHAPE_SELFOVERLAP>
1132.096

> <PUBCHEM_SHAPE_VOLUME>
301.4

> <PUBCHEM_COORDINATE_TYPE>
2
5
10

$$$$
