Ancistrotanzanine-C
  -OEChem-01222105043D

 59 62  0     1  0  0  0  0  0999 V2000
   -0.7333    0.5199   -1.6273 O   0  0  0  0  0  0  0  0  0  0  0  0
    0.0843   -2.0490    2.3222 O   0  0  0  0  0  0  0  0  0  0  0  0
    1.3993    1.2051    1.1981 O   0  0  0  0  0  0  0  0  0  0  0  0
    3.7605    2.2497    1.3446 O   0  0  0  0  0  0  0  0  0  0  0  0
   -4.9844    0.6409   -0.7192 N   0  0  2  0  0  0  0  0  0  0  0  0
   -5.1283    0.6586    0.7529 C   0  0  2  0  0  0  0  0  0  0  0  0
   -3.5629    0.6017   -1.1692 C   0  0  1  0  0  0  0  0  0  0  0  0
   -4.4810   -0.6103    1.3330 C   0  0  0  0  0  0  0  0  0  0  0  0
   -2.5870   -0.0960   -0.2254 C   0  0  0  0  0  0  0  0  0  0  0  0
   -3.0290   -0.6848    0.9670 C   0  0  0  0  0  0  0  0  0  0  0  0
   -1.2139   -0.1323   -0.5247 C   0  0  0  0  0  0  0  0  0  0  0  0
   -6.5912    0.6977    1.2216 C   0  0  0  0  0  0  0  0  0  0  0  0
   -3.5228   -0.1048   -2.5389 C   0  0  0  0  0  0  0  0  0  0  0  0
   -5.6835    1.7747   -1.3426 C   0  0  0  0  0  0  0  0  0  0  0  0
   -2.1226   -1.3519    1.8033 C   0  0  0  0  0  0  0  0  0  0  0  0
   -0.3126   -0.7825    0.3193 C   0  0  0  0  0  0  0  0  0  0  0  0
   -0.7686   -1.4000    1.4793 C   0  0  0  0  0  0  0  0  0  0  0  0
    1.1024   -0.8131   -0.0063 C   0  0  0  0  0  0  0  0  0  0  0  0
    1.6149   -1.8558   -0.7733 C   0  0  0  0  0  0  0  0  0  0  0  0
    1.9480    0.2000    0.4478 C   0  0  0  0  0  0  0  0  0  0  0  0
    3.3182    0.1822    0.1402 C   0  0  0  0  0  0  0  0  0  0  0  0
    2.9736   -1.8892   -1.0884 C   0  0  0  0  0  0  0  0  0  0  0  0
    3.8386   -0.8781   -0.6392 C   0  0  0  0  0  0  0  0  0  0  0  0
   -0.3814    1.8892   -1.4608 C   0  0  0  0  0  0  0  0  0  0  0  0
    0.7419   -2.9590   -1.2813 C   0  0  0  0  0  0  0  0  0  0  0  0
    4.1834    1.1933    0.5895 C   0  0  0  0  0  0  0  0  0  0  0  0
    5.2087   -0.8959   -0.9472 C   0  0  0  0  0  0  0  0  0  0  0  0
    5.5421    1.1593    0.2744 C   0  0  0  0  0  0  0  0  0  0  0  0
    6.0537    0.1168   -0.4925 C   0  0  0  0  0  0  0  0  0  0  0  0
    3.3329    3.4135    0.6430 C   0  0  0  0  0  0  0  0  0  0  0  0
   -4.6206    1.5447    1.1610 H   0  0  0  0  0  0  0  0  0  0  0  0
   -3.2071    1.6353   -1.2739 H   0  0  0  0  0  0  0  0  0  0  0  0
   -4.9865   -1.5129    0.9657 H   0  0  0  0  0  0  0  0  0  0  0  0
   -4.5801   -0.5972    2.4259 H   0  0  0  0  0  0  0  0  0  0  0  0
   -7.0663    1.6554    0.9868 H   0  0  0  0  0  0  0  0  0  0  0  0
   -7.1800   -0.1031    0.7605 H   0  0  0  0  0  0  0  0  0  0  0  0
   -6.6533    0.5745    2.3087 H   0  0  0  0  0  0  0  0  0  0  0  0
   -4.2053    0.3544   -3.2606 H   0  0  0  0  0  0  0  0  0  0  0  0
   -2.5375   -0.0809   -3.0103 H   0  0  0  0  0  0  0  0  0  0  0  0
   -3.8099   -1.1595   -2.4428 H   0  0  0  0  0  0  0  0  0  0  0  0
   -5.5255    1.8122   -2.4247 H   0  0  0  0  0  0  0  0  0  0  0  0
   -5.3561    2.7334   -0.9242 H   0  0  0  0  0  0  0  0  0  0  0  0
   -6.7671    1.6866   -1.2157 H   0  0  0  0  0  0  0  0  0  0  0  0
   -2.4826   -1.8230    2.7152 H   0  0  0  0  0  0  0  0  0  0  0  0
    3.3706   -2.7061   -1.6888 H   0  0  0  0  0  0  0  0  0  0  0  0
   -0.4197   -2.4112    3.0709 H   0  0  0  0  0  0  0  0  0  0  0  0
    0.6901    2.0063   -1.6440 H   0  0  0  0  0  0  0  0  0  0  0  0
   -0.6263    2.2746   -0.4650 H   0  0  0  0  0  0  0  0  0  0  0  0
   -0.9229    2.4782   -2.2067 H   0  0  0  0  0  0  0  0  0  0  0  0
    0.2845   -3.5076   -0.4517 H   0  0  0  0  0  0  0  0  0  0  0  0
   -0.0412   -2.5654   -1.9374 H   0  0  0  0  0  0  0  0  0  0  0  0
    1.3107   -3.6885   -1.8688 H   0  0  0  0  0  0  0  0  0  0  0  0
    5.6308   -1.7009   -1.5451 H   0  0  0  0  0  0  0  0  0  0  0  0
    2.0651    1.5381    1.8210 H   0  0  0  0  0  0  0  0  0  0  0  0
    6.2094    1.9426    0.6244 H   0  0  0  0  0  0  0  0  0  0  0  0
    7.1116    0.0910   -0.7374 H   0  0  0  0  0  0  0  0  0  0  0  0
    2.6817    3.1646   -0.2012 H   0  0  0  0  0  0  0  0  0  0  0  0
    4.2046    3.9685    0.2823 H   0  0  0  0  0  0  0  0  0  0  0  0
    2.7783    4.0500    1.3379 H   0  0  0  0  0  0  0  0  0  0  0  0
  1 11  1  0  0  0  0
  1 24  1  0  0  0  0
  2 17  1  0  0  0  0
  2 46  1  0  0  0  0
  3 20  1  0  0  0  0
  3 54  1  0  0  0  0
  4 26  1  0  0  0  0
  4 30  1  0  0  0  0
  5  6  1  0  0  0  0
  5  7  1  0  0  0  0
  5 14  1  0  0  0  0
  6  8  1  0  0  0  0
  6 12  1  0  0  0  0
  6 31  1  0  0  0  0
  7  9  1  0  0  0  0
  7 13  1  0  0  0  0
  7 32  1  0  0  0  0
  8 10  1  0  0  0  0
  8 33  1  0  0  0  0
  8 34  1  0  0  0  0
  9 10  1  0  0  0  0
  9 11  2  0  0  0  0
 10 15  2  0  0  0  0
 11 16  1  0  0  0  0
 12 35  1  0  0  0  0
 12 36  1  0  0  0  0
 12 37  1  0  0  0  0
 13 38  1  0  0  0  0
 13 39  1  0  0  0  0
 13 40  1  0  0  0  0
 14 41  1  0  0  0  0
 14 42  1  0  0  0  0
 14 43  1  0  0  0  0
 15 17  1  0  0  0  0
 15 44  1  0  0  0  0
 16 17  2  0  0  0  0
 16 18  1  0  0  0  0
 18 19  1  0  0  0  0
 18 20  2  0  0  0  0
 19 22  2  0  0  0  0
 19 25  1  0  0  0  0
 20 21  1  0  0  0  0
 21 23  2  0  0  0  0
 21 26  1  0  0  0  0
 22 23  1  0  0  0  0
 22 45  1  0  0  0  0
 23 27  1  0  0  0  0
 24 47  1  0  0  0  0
 24 48  1  0  0  0  0
 24 49  1  0  0  0  0
 25 50  1  0  0  0  0
 25 51  1  0  0  0  0
 25 52  1  0  0  0  0
 26 28  2  0  0  0  0
 27 29  2  0  0  0  0
 27 53  1  0  0  0  0
 28 29  1  0  0  0  0
 28 55  1  0  0  0  0
 29 56  1  0  0  0  0
 30 57  1  0  0  0  0
 30 58  1  0  0  0  0
 30 59  1  0  0  0  0
M  END
> <PUBCHEM_COMPOUND_CID>
11350305

> <PUBCHEM_CONFORMER_RMSD>
0.8

> <PUBCHEM_CONFORMER_DIVERSEORDER>
1
2

> <PUBCHEM_MMFF94_PARTIAL_CHARGES>
31
1 -0.36
10 -0.14
11 0.08
14 0.27
15 -0.15
17 0.08
19 -0.14
2 -0.53
20 0.08
22 -0.15
24 0.28
25 0.14
26 0.08
27 -0.15
28 -0.15
29 -0.15
3 -0.53
30 0.28
4 -0.36
44 0.15
45 0.15
46 0.45
5 -0.81
53 0.15
54 0.45
55 0.15
56 0.15
6 0.27
7 0.41
8 0.14
9 -0.14

> <PUBCHEM_EFFECTIVE_ROTOR_COUNT>
3.8

> <PUBCHEM_PHARMACOPHORE_FEATURES>
9
1 1 acceptor
1 2 donor
1 3 donor
1 4 acceptor
1 5 cation
6 18 19 20 21 22 23 rings
6 21 23 26 27 28 29 rings
6 5 6 7 8 9 10 rings
6 9 10 11 15 16 17 rings

> <PUBCHEM_HEAVY_ATOM_COUNT>
30

> <PUBCHEM_ATOM_DEF_STEREO_COUNT>
2

> <PUBCHEM_ATOM_UDEF_STEREO_COUNT>
0

> <PUBCHEM_BOND_DEF_STEREO_COUNT>
0

> <PUBCHEM_BOND_UDEF_STEREO_COUNT>
0

> <PUBCHEM_ISOTOPIC_ATOM_COUNT>
0

> <PUBCHEM_COMPONENT_COUNT>
1

> <PUBCHEM_CACTVS_TAUTO_COUNT>
110

> <PUBCHEM_CONFORMER_ID>
00AD312100000001

> <PUBCHEM_MMFF94_ENERGY>
124.9632

> <PUBCHEM_FEATURE_SELFOVERLAP>
45.719

> <PUBCHEM_SHAPE_FINGERPRINT>
10006869 2 17825372000076425733
10411042 1 17625275117607317318
11112241 14 18198048369323520209
11578080 2 18194131943581378068
11595378 159 15647043867792394972
11646440 116 18115040644832712369
12035758 1 17894921745335054353
12236239 1 16487257651379065830
12403259 415 18259987088846101521
12730499 353 18410860932022485686
12969540 114 18410284822215312806
13140716 1 17024613289736625891
13402501 40 18334576832715065572
13583140 156 17846504768328802787
13782708 43 18261962941422804194
14341114 328 14996285812286931105
15183329 4 17346876732526634381
15840311 113 18060147509789223809
17980427 23 17313391178880510638
18681886 176 14692277443886353730
20511986 3 16558740192156009760
21033648 29 18335979874213844776
21792961 116 18336557015456688862
22122407 14 17702964590237211361
22149856 69 16879368706035994953
23557571 272 17822583749645605702
23559900 14 17749677286114758494
23569914 2 17765668574576577361
23576562 1 18198628929191157236
2838139 119 18410846668456954420
3004659 81 16200432442634796086
335352 9 18131358510265102686
3459 39 17168133529893632661
474 4 17989491844320542026
495365 180 18273212019390368498
5265222 85 17460339813787139602
57724786 102 18338239396178924048
6034566 193 17981888845531095164
70251023 43 17627246563198491590

> <PUBCHEM_SHAPE_MULTIPOLES>
588.93
13.41
2.49
1.89
4.15
0.6
0.13
5.87
0.19
-2.34
-0.08
1.88
-0.32
2.11

> <PUBCHEM_SHAPE_SELFOVERLAP>
1295.862

> <PUBCHEM_SHAPE_VOLUME>
320.7

> <PUBCHEM_COORDINATE_TYPE>
2
5
10

$$$$
