Camphenol
  -OEChem-12152006093D

 27 28  0     1  0  0  0  0  0999 V2000
    3.0171    0.2659    0.2296 O   0  0  0  0  0  0  0  0  0  0  0  0
   -0.0271   -1.2279   -0.4468 C   0  0  1  0  0  0  0  0  0  0  0  0
   -1.2332   -0.3863    0.0939 C   0  0  0  0  0  0  0  0  0  0  0  0
    0.7914    0.8527   -0.5273 C   0  0  2  0  0  0  0  0  0  0  0  0
    0.5699   -0.2970   -1.5133 C   0  0  0  0  0  0  0  0  0  0  0  0
    1.1583   -1.2766    0.5475 C   0  0  0  0  0  0  0  0  0  0  0  0
    1.6414    0.1869    0.5726 C   0  0  1  0  0  0  0  0  0  0  0  0
   -0.6137    1.0068    0.0216 C   0  0  0  0  0  0  0  0  0  0  0  0
   -1.6565   -0.7728    1.5178 C   0  0  0  0  0  0  0  0  0  0  0  0
   -2.4545   -0.5217   -0.8343 C   0  0  0  0  0  0  0  0  0  0  0  0
   -1.1928    2.1699    0.3386 C   0  0  0  0  0  0  0  0  0  0  0  0
   -0.3111   -2.2169   -0.8158 H   0  0  0  0  0  0  0  0  0  0  0  0
    1.2267    1.7486   -0.9749 H   0  0  0  0  0  0  0  0  0  0  0  0
   -0.1157   -0.0485   -2.3292 H   0  0  0  0  0  0  0  0  0  0  0  0
    1.4964   -0.6851   -1.9498 H   0  0  0  0  0  0  0  0  0  0  0  0
    0.8676   -1.6330    1.5389 H   0  0  0  0  0  0  0  0  0  0  0  0
    1.9415   -1.9496    0.1778 H   0  0  0  0  0  0  0  0  0  0  0  0
    1.5069    0.6494    1.5560 H   0  0  0  0  0  0  0  0  0  0  0  0
   -1.8520   -1.8485    1.5867 H   0  0  0  0  0  0  0  0  0  0  0  0
   -0.8991   -0.5154    2.2656 H   0  0  0  0  0  0  0  0  0  0  0  0
   -2.5735   -0.2495    1.8138 H   0  0  0  0  0  0  0  0  0  0  0  0
   -3.2977    0.0775   -0.4709 H   0  0  0  0  0  0  0  0  0  0  0  0
   -2.2485   -0.1925   -1.8575 H   0  0  0  0  0  0  0  0  0  0  0  0
   -2.7875   -1.5646   -0.8836 H   0  0  0  0  0  0  0  0  0  0  0  0
   -2.2101    2.2071    0.7120 H   0  0  0  0  0  0  0  0  0  0  0  0
   -0.6578    3.1072    0.2316 H   0  0  0  0  0  0  0  0  0  0  0  0
    3.1493   -0.1514   -0.6376 H   0  0  0  0  0  0  0  0  0  0  0  0
  1  7  1  0  0  0  0
  1 27  1  0  0  0  0
  2  3  1  0  0  0  0
  2  5  1  0  0  0  0
  2  6  1  0  0  0  0
  2 12  1  0  0  0  0
  3  8  1  0  0  0  0
  3  9  1  0  0  0  0
  3 10  1  0  0  0  0
  4  5  1  0  0  0  0
  4  7  1  0  0  0  0
  4  8  1  0  0  0  0
  4 13  1  0  0  0  0
  5 14  1  0  0  0  0
  5 15  1  0  0  0  0
  6  7  1  0  0  0  0
  6 16  1  0  0  0  0
  6 17  1  0  0  0  0
  7 18  1  0  0  0  0
  8 11  2  0  0  0  0
  9 19  1  0  0  0  0
  9 20  1  0  0  0  0
  9 21  1  0  0  0  0
 10 22  1  0  0  0  0
 10 23  1  0  0  0  0
 10 24  1  0  0  0  0
 11 25  1  0  0  0  0
 11 26  1  0  0  0  0
M  END
> <PUBCHEM_COMPOUND_CID>
526611

> <PUBCHEM_CONFORMER_RMSD>
0.4

> <PUBCHEM_CONFORMER_DIVERSEORDER>
1
2
4
3

> <PUBCHEM_MMFF94_PARTIAL_CHARGES>
9
1 -0.68
11 -0.3
25 0.15
26 0.15
27 0.4
3 0.14
4 0.14
7 0.28
8 -0.28

> <PUBCHEM_EFFECTIVE_ROTOR_COUNT>
0.8

> <PUBCHEM_PHARMACOPHORE_FEATURES>
4
1 1 acceptor
1 1 donor
3 3 9 10 hydrophobe
7 2 3 4 5 6 7 8 rings

> <PUBCHEM_HEAVY_ATOM_COUNT>
11

> <PUBCHEM_ATOM_DEF_STEREO_COUNT>
0

> <PUBCHEM_ATOM_UDEF_STEREO_COUNT>
3

> <PUBCHEM_BOND_DEF_STEREO_COUNT>
0

> <PUBCHEM_BOND_UDEF_STEREO_COUNT>
0

> <PUBCHEM_ISOTOPIC_ATOM_COUNT>
0

> <PUBCHEM_COMPONENT_COUNT>
1

> <PUBCHEM_CACTVS_TAUTO_COUNT>
1

> <PUBCHEM_CONFORMER_ID>
0008091300000001

> <PUBCHEM_MMFF94_ENERGY>
42.6574

> <PUBCHEM_FEATURE_SELFOVERLAP>
20.297

> <PUBCHEM_SHAPE_FINGERPRINT>
12423570 1 13000040477933820759
13024252 1 18041825294782678024
137420 1 13768797657956038335
15557651 10 17418085546605813250
16945 1 18412268367198676150
21040471 1 17833565504375066325
241688 4 17683230378967822313
2748010 2 18197220243519346348
29004967 10 15647051551631272964
369184 2 18201988958883101746
5084963 1 17632570569870729354
68250623 7 18053368912443474686

> <PUBCHEM_SHAPE_MULTIPOLES>
220.51
2.8
1.61
1.22
0.74
0.66
-0.04
-0.09
0.28
-0.47
0.19
-0.26
-0.27
-0.05

> <PUBCHEM_SHAPE_SELFOVERLAP>
467.239

> <PUBCHEM_SHAPE_VOLUME>
130.6

> <PUBCHEM_COORDINATE_TYPE>
2
5
10

$$$$
