Cholestane-3,5-diol, 5-acetate, (3.beta,5.alpha
  -OEChem-12152006583D

 82 85  0     1  0  0  0  0  0999 V2000
   -3.3541   -1.4673   -0.5817 O   0  0  0  0  0  0  0  0  0  0  0  0
   -7.2636    0.2078   -0.6370 O   0  0  0  0  0  0  0  0  0  0  0  0
   -4.4660   -2.9996    0.7420 O   0  0  0  0  0  0  0  0  0  0  0  0
    0.6492    0.0731    0.7386 C   0  0  2  0  0  0  0  0  0  0  0  0
    1.3573    1.3717    0.2940 C   0  0  1  0  0  0  0  0  0  0  0  0
   -0.8456    0.2726    1.0133 C   0  0  1  0  0  0  0  0  0  0  0  0
   -1.5272    0.7782   -0.3014 C   0  0  1  0  0  0  0  0  0  0  0  0
   -3.0846    0.9506   -0.1192 C   0  0  2  0  0  0  0  0  0  0  0  0
    2.8026    0.8316    0.1643 C   0  0  2  0  0  0  0  0  0  0  0  0
   -3.6742   -0.4231    0.3625 C   0  0  2  0  0  0  0  0  0  0  0  0
    0.7190    1.8282   -1.0257 C   0  0  0  0  0  0  0  0  0  0  0  0
   -0.8029    2.0202   -0.8862 C   0  0  0  0  0  0  0  0  0  0  0  0
    1.5448   -0.4611    1.8522 C   0  0  0  0  0  0  0  0  0  0  0  0
   -1.5003   -1.0154    1.5342 C   0  0  0  0  0  0  0  0  0  0  0  0
    2.9676   -0.0737    1.4077 C   0  0  0  0  0  0  0  0  0  0  0  0
   -3.0202   -0.8911    1.6721 C   0  0  0  0  0  0  0  0  0  0  0  0
   -3.7598    1.3194   -1.4735 C   0  0  0  0  0  0  0  0  0  0  0  0
   -5.2072   -0.3816    0.4805 C   0  0  0  0  0  0  0  0  0  0  0  0
    1.2832    2.5207    1.3311 C   0  0  0  0  0  0  0  0  0  0  0  0
    3.9094    1.8682    0.0364 C   0  0  1  0  0  0  0  0  0  0  0  0
   -3.3848    2.0928    0.8905 C   0  0  0  0  0  0  0  0  0  0  0  0
   -5.2899    1.3219   -1.4063 C   0  0  0  0  0  0  0  0  0  0  0  0
   -5.8642    0.0251   -0.8429 C   0  0  2  0  0  0  0  0  0  0  0  0
    5.3015    1.3066    0.3988 C   0  0  0  0  0  0  0  0  0  0  0  0
    3.9394    2.4255   -1.3922 C   0  0  0  0  0  0  0  0  0  0  0  0
    5.7049    0.0935   -0.4454 C   0  0  0  0  0  0  0  0  0  0  0  0
   -3.8191   -2.7001   -0.2525 C   0  0  0  0  0  0  0  0  0  0  0  0
    7.0590   -0.5074   -0.0455 C   0  0  0  0  0  0  0  0  0  0  0  0
   -3.4140   -3.6757   -1.3155 C   0  0  0  0  0  0  0  0  0  0  0  0
    7.5561   -1.6889   -0.9001 C   0  0  0  0  0  0  0  0  0  0  0  0
    8.9364   -2.1837   -0.4673 C   0  0  0  0  0  0  0  0  0  0  0  0
    6.5473   -2.8389   -0.8257 C   0  0  0  0  0  0  0  0  0  0  0  0
    0.7200   -0.6598   -0.0829 H   0  0  0  0  0  0  0  0  0  0  0  0
   -0.9604    1.0250    1.7994 H   0  0  0  0  0  0  0  0  0  0  0  0
   -1.3815   -0.0125   -1.0535 H   0  0  0  0  0  0  0  0  0  0  0  0
    2.8369    0.1659   -0.7115 H   0  0  0  0  0  0  0  0  0  0  0  0
    0.9109    1.0920   -1.8165 H   0  0  0  0  0  0  0  0  0  0  0  0
    1.1385    2.7773   -1.3678 H   0  0  0  0  0  0  0  0  0  0  0  0
   -0.9947    2.9018   -0.2671 H   0  0  0  0  0  0  0  0  0  0  0  0
   -1.1998    2.2486   -1.8815 H   0  0  0  0  0  0  0  0  0  0  0  0
    1.4465   -1.5451    1.9706 H   0  0  0  0  0  0  0  0  0  0  0  0
    1.3049    0.0011    2.8164 H   0  0  0  0  0  0  0  0  0  0  0  0
   -1.0830   -1.2652    2.5174 H   0  0  0  0  0  0  0  0  0  0  0  0
   -1.2521   -1.8559    0.8746 H   0  0  0  0  0  0  0  0  0  0  0  0
    3.4522    0.4407    2.2444 H   0  0  0  0  0  0  0  0  0  0  0  0
    3.5447   -0.9765    1.1892 H   0  0  0  0  0  0  0  0  0  0  0  0
   -3.3941   -1.8159    2.1107 H   0  0  0  0  0  0  0  0  0  0  0  0
   -3.2302   -0.1500    2.4544 H   0  0  0  0  0  0  0  0  0  0  0  0
   -3.4440    0.6100   -2.2493 H   0  0  0  0  0  0  0  0  0  0  0  0
   -3.4349    2.3107   -1.8102 H   0  0  0  0  0  0  0  0  0  0  0  0
   -5.7010   -1.2877    0.8335 H   0  0  0  0  0  0  0  0  0  0  0  0
   -5.4955    0.3454    1.2513 H   0  0  0  0  0  0  0  0  0  0  0  0
    0.2567    2.7656    1.6162 H   0  0  0  0  0  0  0  0  0  0  0  0
    1.7114    3.4439    0.9247 H   0  0  0  0  0  0  0  0  0  0  0  0
    1.8199    2.2880    2.2561 H   0  0  0  0  0  0  0  0  0  0  0  0
    3.7536    2.7069    0.7222 H   0  0  0  0  0  0  0  0  0  0  0  0
   -2.8893    1.9535    1.8538 H   0  0  0  0  0  0  0  0  0  0  0  0
   -4.4513    2.2017    1.1030 H   0  0  0  0  0  0  0  0  0  0  0  0
   -3.0560    3.0608    0.4978 H   0  0  0  0  0  0  0  0  0  0  0  0
   -5.6968    1.4920   -2.4113 H   0  0  0  0  0  0  0  0  0  0  0  0
   -5.6432    2.1750   -0.8140 H   0  0  0  0  0  0  0  0  0  0  0  0
   -5.7446   -0.7817   -1.5753 H   0  0  0  0  0  0  0  0  0  0  0  0
    6.0517    2.0966    0.2598 H   0  0  0  0  0  0  0  0  0  0  0  0
    5.3532    1.0503    1.4624 H   0  0  0  0  0  0  0  0  0  0  0  0
    3.8331    1.6440   -2.1514 H   0  0  0  0  0  0  0  0  0  0  0  0
    3.1502    3.1637   -1.5447 H   0  0  0  0  0  0  0  0  0  0  0  0
    4.8806    2.9524   -1.5870 H   0  0  0  0  0  0  0  0  0  0  0  0
    5.7660    0.3880   -1.4998 H   0  0  0  0  0  0  0  0  0  0  0  0
    4.9458   -0.6864   -0.3880 H   0  0  0  0  0  0  0  0  0  0  0  0
   -7.6586    0.4407   -1.4945 H   0  0  0  0  0  0  0  0  0  0  0  0
    7.0073   -0.8201    1.0059 H   0  0  0  0  0  0  0  0  0  0  0  0
    7.8141    0.2885   -0.0889 H   0  0  0  0  0  0  0  0  0  0  0  0
   -3.8507   -3.3827   -2.2735 H   0  0  0  0  0  0  0  0  0  0  0  0
   -3.7841   -4.6711   -1.0537 H   0  0  0  0  0  0  0  0  0  0  0  0
   -2.3240   -3.7169   -1.3847 H   0  0  0  0  0  0  0  0  0  0  0  0
    7.6275   -1.3600   -1.9444 H   0  0  0  0  0  0  0  0  0  0  0  0
    6.3450   -3.1282    0.2112 H   0  0  0  0  0  0  0  0  0  0  0  0
    9.2778   -3.0024   -1.1094 H   0  0  0  0  0  0  0  0  0  0  0  0
    9.6733   -1.3765   -0.5332 H   0  0  0  0  0  0  0  0  0  0  0  0
    5.5987   -2.5749   -1.3026 H   0  0  0  0  0  0  0  0  0  0  0  0
    6.9294   -3.7213   -1.3511 H   0  0  0  0  0  0  0  0  0  0  0  0
    8.9218   -2.5449    0.5666 H   0  0  0  0  0  0  0  0  0  0  0  0
  1 10  1  0  0  0  0
  1 27  1  0  0  0  0
  2 23  1  0  0  0  0
  2 70  1  0  0  0  0
  3 27  2  0  0  0  0
  4  5  1  0  0  0  0
  4  6  1  0  0  0  0
  4 13  1  0  0  0  0
  4 33  1  0  0  0  0
  5  9  1  0  0  0  0
  5 11  1  0  0  0  0
  5 19  1  0  0  0  0
  6  7  1  0  0  0  0
  6 14  1  0  0  0  0
  6 34  1  0  0  0  0
  7  8  1  0  0  0  0
  7 12  1  0  0  0  0
  7 35  1  0  0  0  0
  8 10  1  0  0  0  0
  8 17  1  0  0  0  0
  8 21  1  0  0  0  0
  9 15  1  0  0  0  0
  9 20  1  0  0  0  0
  9 36  1  0  0  0  0
 10 16  1  0  0  0  0
 10 18  1  0  0  0  0
 11 12  1  0  0  0  0
 11 37  1  0  0  0  0
 11 38  1  0  0  0  0
 12 39  1  0  0  0  0
 12 40  1  0  0  0  0
 13 15  1  0  0  0  0
 13 41  1  0  0  0  0
 13 42  1  0  0  0  0
 14 16  1  0  0  0  0
 14 43  1  0  0  0  0
 14 44  1  0  0  0  0
 15 45  1  0  0  0  0
 15 46  1  0  0  0  0
 16 47  1  0  0  0  0
 16 48  1  0  0  0  0
 17 22  1  0  0  0  0
 17 49  1  0  0  0  0
 17 50  1  0  0  0  0
 18 23  1  0  0  0  0
 18 51  1  0  0  0  0
 18 52  1  0  0  0  0
 19 53  1  0  0  0  0
 19 54  1  0  0  0  0
 19 55  1  0  0  0  0
 20 24  1  0  0  0  0
 20 25  1  0  0  0  0
 20 56  1  0  0  0  0
 21 57  1  0  0  0  0
 21 58  1  0  0  0  0
 21 59  1  0  0  0  0
 22 23  1  0  0  0  0
 22 60  1  0  0  0  0
 22 61  1  0  0  0  0
 23 62  1  0  0  0  0
 24 26  1  0  0  0  0
 24 63  1  0  0  0  0
 24 64  1  0  0  0  0
 25 65  1  0  0  0  0
 25 66  1  0  0  0  0
 25 67  1  0  0  0  0
 26 28  1  0  0  0  0
 26 68  1  0  0  0  0
 26 69  1  0  0  0  0
 27 29  1  0  0  0  0
 28 30  1  0  0  0  0
 28 71  1  0  0  0  0
 28 72  1  0  0  0  0
 29 73  1  0  0  0  0
 29 74  1  0  0  0  0
 29 75  1  0  0  0  0
 30 31  1  0  0  0  0
 30 32  1  0  0  0  0
 30 76  1  0  0  0  0
 31 78  1  0  0  0  0
 31 79  1  0  0  0  0
 31 82  1  0  0  0  0
 32 77  1  0  0  0  0
 32 80  1  0  0  0  0
 32 81  1  0  0  0  0
M  END
> <PUBCHEM_COMPOUND_CID>
91691425

> <PUBCHEM_CONFORMER_RMSD>
1

> <PUBCHEM_CONFORMER_DIVERSEORDER>
1
5
7
3
2
4
6

> <PUBCHEM_MMFF94_PARTIAL_CHARGES>
8
1 -0.43
10 0.28
2 -0.68
23 0.28
27 0.66
29 0.06
3 -0.57
70 0.4

> <PUBCHEM_EFFECTIVE_ROTOR_COUNT>
9.2

> <PUBCHEM_PHARMACOPHORE_FEATURES>
10
1 2 acceptor
1 2 donor
1 25 hydrophobe
1 3 acceptor
3 30 31 32 hydrophobe
5 20 24 26 28 30 hydrophobe
5 4 5 9 13 15 rings
6 4 5 6 7 11 12 rings
6 6 7 8 10 14 16 rings
6 8 10 17 18 22 23 rings

> <PUBCHEM_HEAVY_ATOM_COUNT>
32

> <PUBCHEM_ATOM_DEF_STEREO_COUNT>
9

> <PUBCHEM_ATOM_UDEF_STEREO_COUNT>
0

> <PUBCHEM_BOND_DEF_STEREO_COUNT>
0

> <PUBCHEM_BOND_UDEF_STEREO_COUNT>
0

> <PUBCHEM_ISOTOPIC_ATOM_COUNT>
0

> <PUBCHEM_COMPONENT_COUNT>
1

> <PUBCHEM_CACTVS_TAUTO_COUNT>
1

> <PUBCHEM_CONFORMER_ID>
057719A100000001

> <PUBCHEM_MMFF94_ENERGY>
116.7317

> <PUBCHEM_FEATURE_SELFOVERLAP>
50.836

> <PUBCHEM_SHAPE_FINGERPRINT>
10369192 42 10737289043679574408
10391435 84 18341323466665894954
10670039 82 16443347534043685436
11135609 201 11241975888756175534
117089 54 18265903647216599454
11991303 11 14707219846332468442
12788726 201 18261099747965714305
13540713 4 17024895872931417696
1361 4 18196657517638155342
13690498 29 18259703385008211246
13782708 43 18272090522157345714
15064981 113 18198888228898355613
15183329 4 17749392529972184354
15230672 131 18335696105197642218
15347590 135 10879984791776012543
15352257 5 18343021073901334310
15361156 5 18113912563129670468
15510800 12 17845666859069969710
17349148 13 17386836373877906081
18603816 31 17274810372929967543
20105231 36 17894639149641087283
2026 5 18130507423319300078
21267235 1 18040441005390876873
21279426 13 17967814964041913464
21781055 127 17916586415522833921
22393880 68 18261102019417071808
23559900 14 18270953678368365457
23576562 1 16516261750032985957
24771293 8 10447344516500717050
2838139 119 11530773634863061198
3004659 81 18260827090677460384
32027 91 18202560700977514970
437815 12 18411140208730256320
44317340 157 18266181819157256928
531348 171 18409731746380869291
59755656 215 17894910690347554298
7970288 3 17910108345571951391

> <PUBCHEM_SHAPE_MULTIPOLES>
640.94
19.34
3.3
1.53
29.13
2.19
-0.22
12.08
6.73
0.41
0.95
-0.6
-0.06
1.06

> <PUBCHEM_SHAPE_SELFOVERLAP>
1329.445

> <PUBCHEM_SHAPE_VOLUME>
363.9

> <PUBCHEM_COORDINATE_TYPE>
2
5
10

$$$$
