Cholesta-5,22-dien-3-ol, (3.beta)-
  -OEChem-12152006553D

 72 75  0     1  0  0  0  0  0999 V2000
    8.0374    0.2059    0.4800 O   0  0  0  0  0  0  0  0  0  0  0  0
   -0.6729    0.2819   -0.2664 C   0  0  1  0  0  0  0  0  0  0  0  0
    0.1348   -0.9464    0.1979 C   0  0  2  0  0  0  0  0  0  0  0  0
    1.5934   -0.9245   -0.2703 C   0  0  1  0  0  0  0  0  0  0  0  0
    2.2872    0.3675    0.2514 C   0  0  1  0  0  0  0  0  0  0  0  0
   -2.0573   -0.0984    0.3131 C   0  0  2  0  0  0  0  0  0  0  0  0
   -0.0297    1.5232    0.3675 C   0  0  0  0  0  0  0  0  0  0  0  0
    3.7880    0.4565   -0.2387 C   0  0  2  0  0  0  0  0  0  0  0  0
   -0.7457   -2.1290   -0.1946 C   0  0  0  0  0  0  0  0  0  0  0  0
    1.4534    1.6497   -0.0221 C   0  0  0  0  0  0  0  0  0  0  0  0
   -2.1817   -1.6087    0.0027 C   0  0  0  0  0  0  0  0  0  0  0  0
    2.3443   -2.1672    0.2308 C   0  0  0  0  0  0  0  0  0  0  0  0
   -0.7381    0.4489   -1.8049 C   0  0  0  0  0  0  0  0  0  0  0  0
    4.4943   -0.8978   -0.0835 C   0  0  0  0  0  0  0  0  0  0  0  0
   -3.2484    0.7082   -0.1838 C   0  0  2  0  0  0  0  0  0  0  0  0
    4.5238    1.5179    0.6328 C   0  0  0  0  0  0  0  0  0  0  0  0
    3.8316   -2.0462    0.1384 C   0  0  0  0  0  0  0  0  0  0  0  0
    3.8703    0.8702   -1.7278 C   0  0  0  0  0  0  0  0  0  0  0  0
    6.0024   -0.9049   -0.1822 C   0  0  0  0  0  0  0  0  0  0  0  0
    6.0425    1.5273    0.4651 C   0  0  0  0  0  0  0  0  0  0  0  0
    6.6357    0.1470    0.7242 C   0  0  2  0  0  0  0  0  0  0  0  0
   -3.0730    2.1927    0.1448 C   0  0  0  0  0  0  0  0  0  0  0  0
   -4.5271    0.1910    0.4297 C   0  0  0  0  0  0  0  0  0  0  0  0
   -5.5499   -0.3049   -0.2828 C   0  0  0  0  0  0  0  0  0  0  0  0
   -6.8245   -0.8145    0.3284 C   0  0  0  0  0  0  0  0  0  0  0  0
   -8.0692   -0.0379   -0.1411 C   0  0  0  0  0  0  0  0  0  0  0  0
   -7.9922    1.4476    0.2219 C   0  0  0  0  0  0  0  0  0  0  0  0
   -9.3295   -0.6549    0.4697 C   0  0  0  0  0  0  0  0  0  0  0  0
    0.1614   -0.9419    1.3009 H   0  0  0  0  0  0  0  0  0  0  0  0
    1.6229   -0.9397   -1.3656 H   0  0  0  0  0  0  0  0  0  0  0  0
    2.3153    0.2692    1.3490 H   0  0  0  0  0  0  0  0  0  0  0  0
   -2.0082   -0.0018    1.4097 H   0  0  0  0  0  0  0  0  0  0  0  0
   -0.1030    1.4735    1.4614 H   0  0  0  0  0  0  0  0  0  0  0  0
   -0.5140    2.4516    0.0629 H   0  0  0  0  0  0  0  0  0  0  0  0
   -0.5521   -3.0084    0.4279 H   0  0  0  0  0  0  0  0  0  0  0  0
   -0.5848   -2.4199   -1.2387 H   0  0  0  0  0  0  0  0  0  0  0  0
    1.5077    1.9247   -1.0795 H   0  0  0  0  0  0  0  0  0  0  0  0
    1.8788    2.4917    0.5355 H   0  0  0  0  0  0  0  0  0  0  0  0
   -2.7655   -1.8022   -0.9046 H   0  0  0  0  0  0  0  0  0  0  0  0
   -2.6735   -2.1343    0.8289 H   0  0  0  0  0  0  0  0  0  0  0  0
    2.0253   -3.0381   -0.3547 H   0  0  0  0  0  0  0  0  0  0  0  0
    2.0886   -2.3781    1.2767 H   0  0  0  0  0  0  0  0  0  0  0  0
   -1.2520    1.3743   -2.0840 H   0  0  0  0  0  0  0  0  0  0  0  0
    0.2526    0.4977   -2.2647 H   0  0  0  0  0  0  0  0  0  0  0  0
   -1.2677   -0.3758   -2.2924 H   0  0  0  0  0  0  0  0  0  0  0  0
   -3.3363    0.6187   -1.2739 H   0  0  0  0  0  0  0  0  0  0  0  0
    4.3043    1.3374    1.6940 H   0  0  0  0  0  0  0  0  0  0  0  0
    4.1488    2.5233    0.4073 H   0  0  0  0  0  0  0  0  0  0  0  0
    4.3889   -2.9719    0.2610 H   0  0  0  0  0  0  0  0  0  0  0  0
    3.5198    1.8957   -1.8828 H   0  0  0  0  0  0  0  0  0  0  0  0
    4.8950    0.8391   -2.1129 H   0  0  0  0  0  0  0  0  0  0  0  0
    3.2738    0.2107   -2.3666 H   0  0  0  0  0  0  0  0  0  0  0  0
    6.4188   -1.8881    0.0728 H   0  0  0  0  0  0  0  0  0  0  0  0
    6.3052   -0.7330   -1.2228 H   0  0  0  0  0  0  0  0  0  0  0  0
    6.3186    1.8767   -0.5374 H   0  0  0  0  0  0  0  0  0  0  0  0
    6.4873    2.2530    1.1573 H   0  0  0  0  0  0  0  0  0  0  0  0
    6.4907   -0.1233    1.7774 H   0  0  0  0  0  0  0  0  0  0  0  0
   -2.4331    2.6933   -0.5850 H   0  0  0  0  0  0  0  0  0  0  0  0
   -4.0362    2.7158    0.0910 H   0  0  0  0  0  0  0  0  0  0  0  0
   -2.6801    2.3524    1.1545 H   0  0  0  0  0  0  0  0  0  0  0  0
   -4.6088    0.2392    1.5134 H   0  0  0  0  0  0  0  0  0  0  0  0
    8.4022   -0.6787    0.6530 H   0  0  0  0  0  0  0  0  0  0  0  0
   -5.4732   -0.3576   -1.3660 H   0  0  0  0  0  0  0  0  0  0  0  0
   -6.9302   -1.8711    0.0518 H   0  0  0  0  0  0  0  0  0  0  0  0
   -6.7637   -0.7859    1.4240 H   0  0  0  0  0  0  0  0  0  0  0  0
   -8.1481   -0.1186   -1.2332 H   0  0  0  0  0  0  0  0  0  0  0  0
   -7.1596    1.9426   -0.2880 H   0  0  0  0  0  0  0  0  0  0  0  0
   -8.9096    1.9666   -0.0763 H   0  0  0  0  0  0  0  0  0  0  0  0
   -7.8624    1.5860    1.3006 H   0  0  0  0  0  0  0  0  0  0  0  0
   -9.4198   -1.7102    0.1912 H   0  0  0  0  0  0  0  0  0  0  0  0
  -10.2274   -0.1385    0.1138 H   0  0  0  0  0  0  0  0  0  0  0  0
   -9.3137   -0.5926    1.5633 H   0  0  0  0  0  0  0  0  0  0  0  0
  1 21  1  0  0  0  0
  1 62  1  0  0  0  0
  2  3  1  0  0  0  0
  2  6  1  0  0  0  0
  2  7  1  0  0  0  0
  2 13  1  0  0  0  0
  3  4  1  0  0  0  0
  3  9  1  0  0  0  0
  3 29  1  0  0  0  0
  4  5  1  0  0  0  0
  4 12  1  0  0  0  0
  4 30  1  0  0  0  0
  5  8  1  0  0  0  0
  5 10  1  0  0  0  0
  5 31  1  0  0  0  0
  6 11  1  0  0  0  0
  6 15  1  0  0  0  0
  6 32  1  0  0  0  0
  7 10  1  0  0  0  0
  7 33  1  0  0  0  0
  7 34  1  0  0  0  0
  8 14  1  0  0  0  0
  8 16  1  0  0  0  0
  8 18  1  0  0  0  0
  9 11  1  0  0  0  0
  9 35  1  0  0  0  0
  9 36  1  0  0  0  0
 10 37  1  0  0  0  0
 10 38  1  0  0  0  0
 11 39  1  0  0  0  0
 11 40  1  0  0  0  0
 12 17  1  0  0  0  0
 12 41  1  0  0  0  0
 12 42  1  0  0  0  0
 13 43  1  0  0  0  0
 13 44  1  0  0  0  0
 13 45  1  0  0  0  0
 14 17  2  0  0  0  0
 14 19  1  0  0  0  0
 15 22  1  0  0  0  0
 15 23  1  0  0  0  0
 15 46  1  0  0  0  0
 16 20  1  0  0  0  0
 16 47  1  0  0  0  0
 16 48  1  0  0  0  0
 17 49  1  0  0  0  0
 18 50  1  0  0  0  0
 18 51  1  0  0  0  0
 18 52  1  0  0  0  0
 19 21  1  0  0  0  0
 19 53  1  0  0  0  0
 19 54  1  0  0  0  0
 20 21  1  0  0  0  0
 20 55  1  0  0  0  0
 20 56  1  0  0  0  0
 21 57  1  0  0  0  0
 22 58  1  0  0  0  0
 22 59  1  0  0  0  0
 22 60  1  0  0  0  0
 23 24  2  0  0  0  0
 23 61  1  0  0  0  0
 24 25  1  0  0  0  0
 24 63  1  0  0  0  0
 25 26  1  0  0  0  0
 25 64  1  0  0  0  0
 25 65  1  0  0  0  0
 26 27  1  0  0  0  0
 26 28  1  0  0  0  0
 26 66  1  0  0  0  0
 27 67  1  0  0  0  0
 27 68  1  0  0  0  0
 27 69  1  0  0  0  0
 28 70  1  0  0  0  0
 28 71  1  0  0  0  0
 28 72  1  0  0  0  0
M  END
> <PUBCHEM_COMPOUND_CID>
5283661

> <PUBCHEM_CONFORMER_RMSD>
0.8

> <PUBCHEM_CONFORMER_DIVERSEORDER>
1
5
6
7
4
2
3

> <PUBCHEM_MMFF94_PARTIAL_CHARGES>
15
1 -0.68
12 0.14
14 -0.28
15 0.14
17 -0.29
19 0.14
21 0.28
23 -0.29
24 -0.29
25 0.14
49 0.15
61 0.15
62 0.4
63 0.15
8 0.14

> <PUBCHEM_EFFECTIVE_ROTOR_COUNT>
6

> <PUBCHEM_PHARMACOPHORE_FEATURES>
8
1 1 acceptor
1 1 donor
1 22 hydrophobe
3 26 27 28 hydrophobe
5 2 3 6 9 11 rings
6 2 3 4 5 7 10 rings
6 4 5 8 12 14 17 rings
6 8 14 16 19 20 21 rings

> <PUBCHEM_HEAVY_ATOM_COUNT>
28

> <PUBCHEM_ATOM_DEF_STEREO_COUNT>
8

> <PUBCHEM_ATOM_UDEF_STEREO_COUNT>
0

> <PUBCHEM_BOND_DEF_STEREO_COUNT>
1

> <PUBCHEM_BOND_UDEF_STEREO_COUNT>
0

> <PUBCHEM_ISOTOPIC_ATOM_COUNT>
0

> <PUBCHEM_COMPONENT_COUNT>
1

> <PUBCHEM_CACTVS_TAUTO_COUNT>
1

> <PUBCHEM_CONFORMER_ID>
00509F4D00000001

> <PUBCHEM_MMFF94_ENERGY>
77.9929

> <PUBCHEM_FEATURE_SELFOVERLAP>
40.692

> <PUBCHEM_SHAPE_FINGERPRINT>
10 15 18260263084188503624
10050765 1 18123470471749396193
10411042 1 17979637836951929646
11135926 11 18408877439765497263
11578080 2 16843583106142536530
12236239 1 17775286049363370978
12516196 113 18411700980892386137
12788726 201 17203049574064346912
12838862 33 18339625802683173104
13073987 5 18341049610085396057
13533116 47 18272086071843545210
14123256 10 18342176670345324619
14170010 4 18334015004006304949
14251764 18 18201721751835416057
14251764 46 18410856568235011938
14849402 71 18273217534524652329
15840311 113 18334577975893843268
15849732 13 18334294280001964911
16120349 18 18340763832000003505
18608769 82 18411134749768502041
19841028 212 17968373438228463450
20771845 171 16878234070213423938
21267235 1 18340772555025697798
21792934 111 18340195306730392681
22224240 67 18334575746309879283
23559900 14 18339635771756266305
3178227 256 18339372941707029611
335352 9 18411139164287883940
34797466 226 17489874838263305012
350125 39 18412543198357131441
3545911 37 18410291415601697186
4073 2 18114186388690869603
4093350 32 17418377973628023911
4325135 7 18412262835433799319
4340502 62 18408039619719261838
5104073 3 18263649467599545033
59682541 35 18336265725719850329
59755656 215 18410015412577047031

> <PUBCHEM_SHAPE_MULTIPOLES>
570.36
22.52
2.03
0.94
31.79
0.23
-0.36
-1.51
4.05
-0.75
0.14
-0.48
-0.18
0.16

> <PUBCHEM_SHAPE_SELFOVERLAP>
1186.348

> <PUBCHEM_SHAPE_VOLUME>
324.5

> <PUBCHEM_COORDINATE_TYPE>
2
5
10

$$$$
