Cholest-5-en-3-ol, 6-methyl-, (3.beta)-
  -OEChem-12152006503D

 77 80  0     1  0  0  0  0  0999 V2000
    7.6299    0.6380    1.0946 O   0  0  0  0  0  0  0  0  0  0  0  0
   -0.9037    0.3347   -0.7821 C   0  0  1  0  0  0  0  0  0  0  0  0
   -0.1160   -0.8844   -0.2644 C   0  0  2  0  0  0  0  0  0  0  0  0
    1.3932   -0.7817   -0.5111 C   0  0  1  0  0  0  0  0  0  0  0  0
    1.9467    0.5012    0.1594 C   0  0  1  0  0  0  0  0  0  0  0  0
   -2.3386   -0.1294   -0.4323 C   0  0  2  0  0  0  0  0  0  0  0  0
   -0.4160    1.5609    0.0011 C   0  0  0  0  0  0  0  0  0  0  0  0
    3.4930    0.6634   -0.1212 C   0  0  2  0  0  0  0  0  0  0  0  0
   -0.8748   -2.0767   -0.8392 C   0  0  0  0  0  0  0  0  0  0  0  0
    1.0999    1.7647   -0.1630 C   0  0  0  0  0  0  0  0  0  0  0  0
   -2.3467   -1.6243   -0.8296 C   0  0  0  0  0  0  0  0  0  0  0  0
    2.1170   -2.0090    0.0551 C   0  0  0  0  0  0  0  0  0  0  0  0
   -3.4802    0.6568   -1.0608 C   0  0  1  0  0  0  0  0  0  0  0  0
   -0.7516    0.5837   -2.3031 C   0  0  0  0  0  0  0  0  0  0  0  0
    4.2494   -0.6726    0.0797 C   0  0  0  0  0  0  0  0  0  0  0  0
    4.0468    1.7209    0.8829 C   0  0  0  0  0  0  0  0  0  0  0  0
    3.6142   -1.8635    0.1895 C   0  0  0  0  0  0  0  0  0  0  0  0
    3.7464    1.1514   -1.5698 C   0  0  0  0  0  0  0  0  0  0  0  0
    5.7632   -0.5440    0.1277 C   0  0  0  0  0  0  0  0  0  0  0  0
    5.5685    1.8339    0.9118 C   0  0  0  0  0  0  0  0  0  0  0  0
   -4.8363    0.0418   -0.6511 C   0  0  0  0  0  0  0  0  0  0  0  0
    6.2164    0.4793    1.1647 C   0  0  2  0  0  0  0  0  0  0  0  0
   -3.3740    2.1351   -0.6704 C   0  0  0  0  0  0  0  0  0  0  0  0
    4.3004   -3.1803    0.4578 C   0  0  0  0  0  0  0  0  0  0  0  0
   -5.0494   -0.0289    0.8644 C   0  0  0  0  0  0  0  0  0  0  0  0
   -6.3664   -0.7061    1.2663 C   0  0  0  0  0  0  0  0  0  0  0  0
   -7.6528   -0.0824    0.6924 C   0  0  0  0  0  0  0  0  0  0  0  0
   -7.7703    1.3731    1.1544 C   0  0  0  0  0  0  0  0  0  0  0  0
   -8.9083   -0.8556    1.0966 C   0  0  0  0  0  0  0  0  0  0  0  0
   -0.2498   -0.9393    0.8295 H   0  0  0  0  0  0  0  0  0  0  0  0
    1.5823   -0.7501   -1.5898 H   0  0  0  0  0  0  0  0  0  0  0  0
    1.8322    0.3481    1.2451 H   0  0  0  0  0  0  0  0  0  0  0  0
   -2.4161   -0.0753    0.6616 H   0  0  0  0  0  0  0  0  0  0  0  0
   -0.6415    1.4472    1.0692 H   0  0  0  0  0  0  0  0  0  0  0  0
   -0.8880    2.4889   -0.3219 H   0  0  0  0  0  0  0  0  0  0  0  0
   -0.5513   -2.3036   -1.8612 H   0  0  0  0  0  0  0  0  0  0  0  0
   -0.7328   -2.9809   -0.2385 H   0  0  0  0  0  0  0  0  0  0  0  0
    1.2888    2.1047   -1.1852 H   0  0  0  0  0  0  0  0  0  0  0  0
    1.4018    2.5882    0.4940 H   0  0  0  0  0  0  0  0  0  0  0  0
   -2.7828   -1.7890   -1.8215 H   0  0  0  0  0  0  0  0  0  0  0  0
   -2.9271   -2.2144   -0.1119 H   0  0  0  0  0  0  0  0  0  0  0  0
    1.7173   -2.2592    1.0469 H   0  0  0  0  0  0  0  0  0  0  0  0
    1.8927   -2.8612   -0.5992 H   0  0  0  0  0  0  0  0  0  0  0  0
   -3.4348    0.5958   -2.1553 H   0  0  0  0  0  0  0  0  0  0  0  0
   -1.1685   -0.2319   -2.9025 H   0  0  0  0  0  0  0  0  0  0  0  0
   -1.2573    1.5032   -2.6130 H   0  0  0  0  0  0  0  0  0  0  0  0
    0.2928    0.6910   -2.6084 H   0  0  0  0  0  0  0  0  0  0  0  0
    3.7094    1.4722    1.8984 H   0  0  0  0  0  0  0  0  0  0  0  0
    3.6388    2.7130    0.6565 H   0  0  0  0  0  0  0  0  0  0  0  0
    3.2875    0.4871   -2.3090 H   0  0  0  0  0  0  0  0  0  0  0  0
    4.8119    1.2054   -1.8144 H   0  0  0  0  0  0  0  0  0  0  0  0
    3.3535    2.1600   -1.7325 H   0  0  0  0  0  0  0  0  0  0  0  0
    6.2696   -1.4832    0.3622 H   0  0  0  0  0  0  0  0  0  0  0  0
    6.1455   -0.2723   -0.8639 H   0  0  0  0  0  0  0  0  0  0  0  0
    5.8742    2.5394    1.6944 H   0  0  0  0  0  0  0  0  0  0  0  0
    5.9414    2.2636   -0.0263 H   0  0  0  0  0  0  0  0  0  0  0  0
   -4.9393   -0.9619   -1.0802 H   0  0  0  0  0  0  0  0  0  0  0  0
   -5.6287    0.6456   -1.1086 H   0  0  0  0  0  0  0  0  0  0  0  0
    5.9679    0.1333    2.1755 H   0  0  0  0  0  0  0  0  0  0  0  0
   -2.6637    2.6719   -1.3022 H   0  0  0  0  0  0  0  0  0  0  0  0
   -4.3364    2.6352   -0.8338 H   0  0  0  0  0  0  0  0  0  0  0  0
   -3.1190    2.2748    0.3846 H   0  0  0  0  0  0  0  0  0  0  0  0
    3.7876   -3.9966   -0.0636 H   0  0  0  0  0  0  0  0  0  0  0  0
    5.3329   -3.2213    0.1071 H   0  0  0  0  0  0  0  0  0  0  0  0
    4.2796   -3.4012    1.5296 H   0  0  0  0  0  0  0  0  0  0  0  0
   -4.2597   -0.6166    1.3416 H   0  0  0  0  0  0  0  0  0  0  0  0
   -4.9978    0.9724    1.3044 H   0  0  0  0  0  0  0  0  0  0  0  0
    8.0314   -0.2305    1.2685 H   0  0  0  0  0  0  0  0  0  0  0  0
   -6.3212   -1.7573    0.9521 H   0  0  0  0  0  0  0  0  0  0  0  0
   -6.4270   -0.7204    2.3624 H   0  0  0  0  0  0  0  0  0  0  0  0
   -7.6086   -0.0973   -0.4026 H   0  0  0  0  0  0  0  0  0  0  0  0
   -6.9646    1.9918    0.7482 H   0  0  0  0  0  0  0  0  0  0  0  0
   -8.7133    1.8118    0.8100 H   0  0  0  0  0  0  0  0  0  0  0  0
   -7.7452    1.4486    2.2469 H   0  0  0  0  0  0  0  0  0  0  0  0
   -9.0341   -0.8660    2.1845 H   0  0  0  0  0  0  0  0  0  0  0  0
   -9.8041   -0.4068    0.6547 H   0  0  0  0  0  0  0  0  0  0  0  0
   -8.8490   -1.8936    0.7530 H   0  0  0  0  0  0  0  0  0  0  0  0
  1 22  1  0  0  0  0
  1 68  1  0  0  0  0
  2  3  1  0  0  0  0
  2  6  1  0  0  0  0
  2  7  1  0  0  0  0
  2 14  1  0  0  0  0
  3  4  1  0  0  0  0
  3  9  1  0  0  0  0
  3 30  1  0  0  0  0
  4  5  1  0  0  0  0
  4 12  1  0  0  0  0
  4 31  1  0  0  0  0
  5  8  1  0  0  0  0
  5 10  1  0  0  0  0
  5 32  1  0  0  0  0
  6 11  1  0  0  0  0
  6 13  1  0  0  0  0
  6 33  1  0  0  0  0
  7 10  1  0  0  0  0
  7 34  1  0  0  0  0
  7 35  1  0  0  0  0
  8 15  1  0  0  0  0
  8 16  1  0  0  0  0
  8 18  1  0  0  0  0
  9 11  1  0  0  0  0
  9 36  1  0  0  0  0
  9 37  1  0  0  0  0
 10 38  1  0  0  0  0
 10 39  1  0  0  0  0
 11 40  1  0  0  0  0
 11 41  1  0  0  0  0
 12 17  1  0  0  0  0
 12 42  1  0  0  0  0
 12 43  1  0  0  0  0
 13 21  1  0  0  0  0
 13 23  1  0  0  0  0
 13 44  1  0  0  0  0
 14 45  1  0  0  0  0
 14 46  1  0  0  0  0
 14 47  1  0  0  0  0
 15 17  2  0  0  0  0
 15 19  1  0  0  0  0
 16 20  1  0  0  0  0
 16 48  1  0  0  0  0
 16 49  1  0  0  0  0
 17 24  1  0  0  0  0
 18 50  1  0  0  0  0
 18 51  1  0  0  0  0
 18 52  1  0  0  0  0
 19 22  1  0  0  0  0
 19 53  1  0  0  0  0
 19 54  1  0  0  0  0
 20 22  1  0  0  0  0
 20 55  1  0  0  0  0
 20 56  1  0  0  0  0
 21 25  1  0  0  0  0
 21 57  1  0  0  0  0
 21 58  1  0  0  0  0
 22 59  1  0  0  0  0
 23 60  1  0  0  0  0
 23 61  1  0  0  0  0
 23 62  1  0  0  0  0
 24 63  1  0  0  0  0
 24 64  1  0  0  0  0
 24 65  1  0  0  0  0
 25 26  1  0  0  0  0
 25 66  1  0  0  0  0
 25 67  1  0  0  0  0
 26 27  1  0  0  0  0
 26 69  1  0  0  0  0
 26 70  1  0  0  0  0
 27 28  1  0  0  0  0
 27 29  1  0  0  0  0
 27 71  1  0  0  0  0
 28 72  1  0  0  0  0
 28 73  1  0  0  0  0
 28 74  1  0  0  0  0
 29 75  1  0  0  0  0
 29 76  1  0  0  0  0
 29 77  1  0  0  0  0
M  END
> <PUBCHEM_COMPOUND_CID>
22296687

> <PUBCHEM_CONFORMER_RMSD>
0.8

> <PUBCHEM_CONFORMER_DIVERSEORDER>
5
18
1
21
20
9
17
19
12
6
8
10
7
16
11
3
13
14
4
2
15

> <PUBCHEM_MMFF94_PARTIAL_CHARGES>
9
1 -0.68
12 0.14
15 -0.28
17 -0.28
19 0.14
22 0.28
24 0.14
68 0.4
8 0.14

> <PUBCHEM_EFFECTIVE_ROTOR_COUNT>
7

> <PUBCHEM_PHARMACOPHORE_FEATURES>
9
1 1 acceptor
1 1 donor
1 23 hydrophobe
3 27 28 29 hydrophobe
5 13 21 25 26 27 hydrophobe
5 2 3 6 9 11 rings
6 2 3 4 5 7 10 rings
6 4 5 8 12 15 17 rings
6 8 15 16 19 20 22 rings

> <PUBCHEM_HEAVY_ATOM_COUNT>
29

> <PUBCHEM_ATOM_DEF_STEREO_COUNT>
8

> <PUBCHEM_ATOM_UDEF_STEREO_COUNT>
0

> <PUBCHEM_BOND_DEF_STEREO_COUNT>
0

> <PUBCHEM_BOND_UDEF_STEREO_COUNT>
0

> <PUBCHEM_ISOTOPIC_ATOM_COUNT>
0

> <PUBCHEM_COMPONENT_COUNT>
1

> <PUBCHEM_CACTVS_TAUTO_COUNT>
1

> <PUBCHEM_CONFORMER_ID>
0154386F00000005

> <PUBCHEM_MMFF94_ENERGY>
89.0613

> <PUBCHEM_FEATURE_SELFOVERLAP>
45.771

> <PUBCHEM_SHAPE_FINGERPRINT>
10 15 18261391186717360144
106641 1 18341896316555765899
11456790 92 18272928302292958888
11578080 2 17416389081810946450
11646440 116 18342739628308990784
12166972 35 13045941304875727094
12236239 1 17489864951253779894
12596602 18 17775004626148126115
12730499 353 18408884023675788698
12788726 201 17131549449469766648
13073987 5 18338514132061244689
13140716 1 18123466348053771484
13533116 47 18410857624839593634
13540713 4 18044930173632532751
13668630 136 11674878896736363209
13782708 43 16805601439023126099
14114211 68 18335719260362549038
14251764 18 17989485247308628781
14341114 176 18408887317677899149
14347424 109 18272369728700474851
14849402 71 18059574745825027833
15064986 96 17846226539883794230
15188451 53 15864068776039726215
15461852 350 16200142202532005389
15475509 35 17241036588439613906
1577012 14 17561359583102289655
1813 80 16877663439649728556
18608769 82 18261674864996521418
20028762 73 11746927694407625168
20105231 36 18342466915508877222
2026 5 13335554811317024768
20554085 129 14692571005048689967
21130935 74 18409736123902681907
21150785 3 8142087558867332880
21267235 1 18410015390870160502
21623969 137 18333733515559311970
21792934 111 18260827064997392389
22122407 14 17632025233942290817
22149856 69 18336841797009649761
22224240 67 18342177778637193747
23559900 14 18342444955904782600
23576562 1 11239415138986251713
249057 3 9511456732195637905
29717793 49 11025795383879899226
3178227 256 18410854386930059904
3383291 50 17240778306903194627
3545911 37 18410005538362597158
4073 2 18261960764158981275
4093350 32 17203610372418617374
4340502 62 18186801383183344026
5104073 3 18263639567779165625
5283156 175 13190337964049764787
59682541 35 18261675969119471985
59755656 215 18409442567235227678

> <PUBCHEM_SHAPE_MULTIPOLES>
590.94
20.55
2.34
1.37
27.91
0.9
-0.33
-1.26
12.33
-2.24
0.09
0.54
-0.29
0.54

> <PUBCHEM_SHAPE_SELFOVERLAP>
1222.748

> <PUBCHEM_SHAPE_VOLUME>
338.3

> <PUBCHEM_COORDINATE_TYPE>
2
5
10

$$$$
