Chrysopentamine
  -OEChem-01222104343D

 80 87  0     1  0  0  0  0  0999 V2000
    0.3021   -0.3351   -0.5825 O   0  0  0  0  0  0  0  0  0  0  0  0
    7.5918   -1.9018    0.1009 O   0  0  0  0  0  0  0  0  0  0  0  0
    3.9534   -2.8619   -1.0960 N   0  0  2  0  0  0  0  0  0  0  0  0
   -2.1218   -1.0414    1.0015 N   0  0  2  0  0  0  0  0  0  0  0  0
    1.1173    3.1251    0.2354 N   0  3  0  0  0  0  0  0  0  0  0  0
    3.0717   -0.0059    0.0213 N   0  0  0  0  0  0  0  0  0  0  0  0
   -5.3797    0.6456    0.1478 N   0  0  0  0  0  0  0  0  0  0  0  0
    4.8180   -2.5645    0.0633 C   0  0  2  0  0  0  0  0  0  0  0  0
   -2.9175    0.1373    0.5547 C   0  0  1  0  0  0  0  0  0  0  0  0
    3.9487   -2.8885    1.2924 C   0  0  0  0  0  0  0  0  0  0  0  0
    5.3222   -1.1367    0.0638 C   0  0  0  0  0  0  0  0  0  0  0  0
    2.6422   -3.4259    0.7253 C   0  0  0  0  0  0  0  0  0  0  0  0
    4.4511   -0.0414    0.0462 C   0  0  0  0  0  0  0  0  0  0  0  0
    3.0242   -3.9048   -0.6608 C   0  0  0  0  0  0  0  0  0  0  0  0
    3.7509    2.1076    0.0272 C   0  0  0  0  0  0  0  0  0  0  0  0
    2.6409    1.2914    0.0154 C   0  0  0  0  0  0  0  0  0  0  0  0
   -2.2814    0.7287   -0.7086 C   0  0  0  0  0  0  0  0  0  0  0  0
   -4.3458   -0.2326    0.3052 C   0  0  0  0  0  0  0  0  0  0  0  0
    4.9054    1.2818    0.0480 C   0  0  0  0  0  0  0  0  0  0  0  0
    1.2779    1.7895   -0.0108 C   0  0  0  0  0  0  0  0  0  0  0  0
   -4.8404   -1.5136    0.1888 C   0  0  0  0  0  0  0  0  0  0  0  0
    3.5887    3.5826   -0.0024 C   0  0  0  0  0  0  0  0  0  0  0  0
   -2.4685   -2.2840    0.2692 C   0  0  0  0  0  0  0  0  0  0  0  0
   -1.0890    1.5766   -0.3741 C   0  0  0  0  0  0  0  0  0  0  0  0
   -3.9563   -2.6997    0.3473 C   0  0  0  0  0  0  0  0  0  0  0  0
    2.2725    3.9803    0.6771 C   0  0  0  0  0  0  0  0  0  0  0  0
    0.1718    0.9961   -0.3181 C   0  0  0  0  0  0  0  0  0  0  0  0
    6.6946   -0.8730    0.0824 C   0  0  0  0  0  0  0  0  0  0  0  0
   -6.2366   -1.4147   -0.0574 C   0  0  0  0  0  0  0  0  0  0  0  0
   -1.2338    2.9332   -0.1241 C   0  0  0  0  0  0  0  0  0  0  0  0
    4.7005   -3.2546   -2.2842 C   0  0  0  0  0  0  0  0  0  0  0  0
   -0.1114    3.6875    0.1852 C   0  0  0  0  0  0  0  0  0  0  0  0
    6.2939    1.5217    0.0644 C   0  0  0  0  0  0  0  0  0  0  0  0
   -6.5484   -0.0504   -0.0806 C   0  0  0  0  0  0  0  0  0  0  0  0
   -2.2119   -1.2346    2.4504 C   0  0  0  0  0  0  0  0  0  0  0  0
    7.1750    0.4347    0.0822 C   0  0  0  0  0  0  0  0  0  0  0  0
   -7.2717   -2.3494   -0.2592 C   0  0  0  0  0  0  0  0  0  0  0  0
   -7.8475    0.4213   -0.3012 C   0  0  0  0  0  0  0  0  0  0  0  0
   -2.5320    3.5902   -0.1664 C   0  0  0  0  0  0  0  0  0  0  0  0
   -8.5749   -1.8898   -0.4809 C   0  0  0  0  0  0  0  0  0  0  0  0
   -8.8558   -0.5254   -0.5018 C   0  0  0  0  0  0  0  0  0  0  0  0
   -2.8905    4.5986   -0.9863 C   0  0  0  0  0  0  0  0  0  0  0  0
    5.6561   -3.2735    0.0803 H   0  0  0  0  0  0  0  0  0  0  0  0
   -2.9051    0.8984    1.3474 H   0  0  0  0  0  0  0  0  0  0  0  0
    4.4356   -3.6745    1.8838 H   0  0  0  0  0  0  0  0  0  0  0  0
    3.7675   -2.0451    1.9666 H   0  0  0  0  0  0  0  0  0  0  0  0
    1.8800   -2.6419    0.6765 H   0  0  0  0  0  0  0  0  0  0  0  0
    2.2376   -4.2357    1.3407 H   0  0  0  0  0  0  0  0  0  0  0  0
    2.1509   -3.9778   -1.3161 H   0  0  0  0  0  0  0  0  0  0  0  0
    3.5096   -4.8874   -0.6027 H   0  0  0  0  0  0  0  0  0  0  0  0
   -3.0141    1.3394   -1.2540 H   0  0  0  0  0  0  0  0  0  0  0  0
   -2.0316   -0.0343   -1.4573 H   0  0  0  0  0  0  0  0  0  0  0  0
    3.5747    3.9136   -1.0479 H   0  0  0  0  0  0  0  0  0  0  0  0
    4.4268    4.0833    0.4937 H   0  0  0  0  0  0  0  0  0  0  0  0
   -2.2026   -2.1584   -0.7880 H   0  0  0  0  0  0  0  0  0  0  0  0
   -1.8403   -3.1123    0.6206 H   0  0  0  0  0  0  0  0  0  0  0  0
   -4.1690   -3.4417   -0.4304 H   0  0  0  0  0  0  0  0  0  0  0  0
   -4.1601   -3.1697    1.3167 H   0  0  0  0  0  0  0  0  0  0  0  0
    2.3286    3.8467    1.7646 H   0  0  0  0  0  0  0  0  0  0  0  0
    2.0391    5.0272    0.4573 H   0  0  0  0  0  0  0  0  0  0  0  0
    2.4694   -0.8132   -0.0186 H   0  0  0  0  0  0  0  0  0  0  0  0
   -5.3036    1.6529    0.1846 H   0  0  0  0  0  0  0  0  0  0  0  0
    4.0151   -3.4526   -3.1156 H   0  0  0  0  0  0  0  0  0  0  0  0
    5.3655   -2.4472   -2.6086 H   0  0  0  0  0  0  0  0  0  0  0  0
    5.3057   -4.1530   -2.1181 H   0  0  0  0  0  0  0  0  0  0  0  0
   -0.1606    4.7463    0.4147 H   0  0  0  0  0  0  0  0  0  0  0  0
    6.6834    2.5357    0.0641 H   0  0  0  0  0  0  0  0  0  0  0  0
   -3.2353   -1.4124    2.7970 H   0  0  0  0  0  0  0  0  0  0  0  0
   -1.5899   -2.0802    2.7645 H   0  0  0  0  0  0  0  0  0  0  0  0
   -1.8225   -0.3548    2.9749 H   0  0  0  0  0  0  0  0  0  0  0  0
    8.2447    0.6305    0.0958 H   0  0  0  0  0  0  0  0  0  0  0  0
   -7.0681   -3.4164   -0.2455 H   0  0  0  0  0  0  0  0  0  0  0  0
   -8.0686    1.4834   -0.3157 H   0  0  0  0  0  0  0  0  0  0  0  0
   -3.2768    3.2104    0.5286 H   0  0  0  0  0  0  0  0  0  0  0  0
   -0.5036   -0.8078   -0.3307 H   0  0  0  0  0  0  0  0  0  0  0  0
    8.4937   -1.5381    0.1115 H   0  0  0  0  0  0  0  0  0  0  0  0
   -9.3761   -2.6070   -0.6383 H   0  0  0  0  0  0  0  0  0  0  0  0
   -9.8753   -0.1905   -0.6755 H   0  0  0  0  0  0  0  0  0  0  0  0
   -3.8920    5.0123   -0.9382 H   0  0  0  0  0  0  0  0  0  0  0  0
   -2.1991    5.0169   -1.7099 H   0  0  0  0  0  0  0  0  0  0  0  0
  1 27  1  0  0  0  0
  1 75  1  0  0  0  0
  2 28  1  0  0  0  0
  2 76  1  0  0  0  0
  3  8  1  0  0  0  0
  3 14  1  0  0  0  0
  3 31  1  0  0  0  0
  4  9  1  0  0  0  0
  4 23  1  0  0  0  0
  4 35  1  0  0  0  0
  5 20  2  0  0  0  0
  5 26  1  0  0  0  0
  5 32  1  0  0  0  0
  6 13  1  0  0  0  0
  6 16  1  0  0  0  0
  6 61  1  0  0  0  0
  7 18  1  0  0  0  0
  7 34  1  0  0  0  0
  7 62  1  0  0  0  0
  8 10  1  0  0  0  0
  8 11  1  0  0  0  0
  8 43  1  0  0  0  0
  9 17  1  0  0  0  0
  9 18  1  0  0  0  0
  9 44  1  0  0  0  0
 10 12  1  0  0  0  0
 10 45  1  0  0  0  0
 10 46  1  0  0  0  0
 11 13  1  0  0  0  0
 11 28  2  0  0  0  0
 12 14  1  0  0  0  0
 12 47  1  0  0  0  0
 12 48  1  0  0  0  0
 13 19  2  0  0  0  0
 14 49  1  0  0  0  0
 14 50  1  0  0  0  0
 15 16  2  0  0  0  0
 15 19  1  0  0  0  0
 15 22  1  0  0  0  0
 16 20  1  0  0  0  0
 17 24  1  0  0  0  0
 17 51  1  0  0  0  0
 17 52  1  0  0  0  0
 18 21  2  0  0  0  0
 19 33  1  0  0  0  0
 20 27  1  0  0  0  0
 21 25  1  0  0  0  0
 21 29  1  0  0  0  0
 22 26  1  0  0  0  0
 22 53  1  0  0  0  0
 22 54  1  0  0  0  0
 23 25  1  0  0  0  0
 23 55  1  0  0  0  0
 23 56  1  0  0  0  0
 24 27  2  0  0  0  0
 24 30  1  0  0  0  0
 25 57  1  0  0  0  0
 25 58  1  0  0  0  0
 26 59  1  0  0  0  0
 26 60  1  0  0  0  0
 28 36  1  0  0  0  0
 29 34  1  0  0  0  0
 29 37  2  0  0  0  0
 30 32  2  0  0  0  0
 30 39  1  0  0  0  0
 31 63  1  0  0  0  0
 31 64  1  0  0  0  0
 31 65  1  0  0  0  0
 32 66  1  0  0  0  0
 33 36  2  0  0  0  0
 33 67  1  0  0  0  0
 34 38  2  0  0  0  0
 35 68  1  0  0  0  0
 35 69  1  0  0  0  0
 35 70  1  0  0  0  0
 36 71  1  0  0  0  0
 37 40  1  0  0  0  0
 37 72  1  0  0  0  0
 38 41  1  0  0  0  0
 38 73  1  0  0  0  0
 39 42  2  0  0  0  0
 39 74  1  0  0  0  0
 40 41  2  0  0  0  0
 40 77  1  0  0  0  0
 41 78  1  0  0  0  0
 42 79  1  0  0  0  0
 42 80  1  0  0  0  0
M  CHG  1   5   1
M  END
> <PUBCHEM_COMPOUND_CID>
49799722

> <PUBCHEM_CONFORMER_RMSD>
1

> <PUBCHEM_CONFORMER_DIVERSEORDER>
1
9
13
5
7
10
14
15
8
4
16
12
6
3
18
11
2
17

> <PUBCHEM_MMFF94_PARTIAL_CHARGES>
52
1 -0.53
11 -0.14
13 -0.15
14 0.27
15 -0.18
16 -0.2
17 0.14
18 -0.33
2 -0.53
20 0.41
21 -0.18
22 0.18
23 0.27
24 -0.14
25 0.18
26 0.49
27 0.08
28 0.08
3 -0.81
30 0.03
31 0.27
32 0.21
33 -0.15
34 -0.15
35 0.27
36 -0.15
37 -0.15
38 -0.15
39 -0.18
4 -0.81
40 -0.15
41 -0.15
42 -0.3
5 -0.21
6 0.03
61 0.27
62 0.27
66 0.15
67 0.15
7 0.03
71 0.15
72 0.15
73 0.15
74 0.15
75 0.45
76 0.45
77 0.15
78 0.15
79 0.15
8 0.41
80 0.15
9 0.45

> <PUBCHEM_EFFECTIVE_ROTOR_COUNT>
6.2

> <PUBCHEM_PHARMACOPHORE_FEATURES>
17
1 1 donor
1 2 donor
1 3 cation
1 4 cation
1 42 hydrophobe
1 6 cation
1 6 donor
1 7 cation
1 7 donor
5 3 8 10 12 14 rings
5 6 13 15 16 19 rings
5 7 18 21 29 34 rings
6 11 13 19 28 33 36 rings
6 29 34 37 38 40 41 rings
6 4 9 18 21 23 25 rings
6 5 15 16 20 22 26 rings
6 5 20 24 27 30 32 rings

> <PUBCHEM_HEAVY_ATOM_COUNT>
42

> <PUBCHEM_ATOM_DEF_STEREO_COUNT>
2

> <PUBCHEM_ATOM_UDEF_STEREO_COUNT>
0

> <PUBCHEM_BOND_DEF_STEREO_COUNT>
0

> <PUBCHEM_BOND_UDEF_STEREO_COUNT>
0

> <PUBCHEM_ISOTOPIC_ATOM_COUNT>
0

> <PUBCHEM_COMPONENT_COUNT>
1

> <PUBCHEM_CACTVS_TAUTO_COUNT>
75

> <PUBCHEM_CONFORMER_ID>
02F7E22A00000001

> <PUBCHEM_MMFF94_ENERGY>
117.0387

> <PUBCHEM_FEATURE_SELFOVERLAP>
86.663

> <PUBCHEM_SHAPE_FINGERPRINT>
10050765 1 18265894653132393429
10580692 12 18411699877544720489
117089 54 18127982901798762878
11828532 37 18041570259609525995
12128747 34 18334857182309936229
12202916 173 18408039624178363978
1361 2 18411981368726010563
13811026 1 18334575772016301571
14117953 113 18343304772885192566
14394314 77 18409452449754600089
14681490 219 18335135380484971771
14725015 67 18334849503272563874
15131766 46 16268807956609870840
15183329 4 18407758149375057499
15276724 80 18336826373597414599
15320467 1 18410012135100755938
15347590 135 17988067994359706552
15351339 4 18114454548698737651
15361156 5 18114754831421814508
15890870 6 18334579079610858182
15927050 60 17903354806600469929
16067689 302 18338523062216729083
16090146 7 16371018381560166969
16628084 112 18262228929290302571
16664035 1 18341613776169424249
19301676 85 18334860506758087755
19301679 30 18412261709846633509
19315958 150 18192993940356942865
20721686 56 18335424565076139643
21197605 99 18413388727336679022
21458453 9 10663817508022096925
21703447 108 18410848876281550624
22889206 1 17699275887250124152
23559900 14 18336542845310124473
3004659 81 18040430035728015048
3103668 31 18041549262211216141
404807 14 17982747276856104747
4073 2 18044094781403752291
4144715 1 18189342436966745275
4461854 278 17918269862299214454
5309563 4 18411984637891714320
9831232 110 18410293592786081103
99344 41 18341894104305197631

> <PUBCHEM_SHAPE_MULTIPOLES>
827.7
22
5.63
1.08
23.79
2.63
-0.08
-13.7
2.64
-3.81
0.67
-0.32
-0.76
1.39

> <PUBCHEM_SHAPE_SELFOVERLAP>
1864.582

> <PUBCHEM_SHAPE_VOLUME>
436.3

> <PUBCHEM_COORDINATE_TYPE>
2
5
10

$$$$
