Dioncophylline-C
  -OEChem-01222104453D

 52 55  0     1  0  0  0  0  0999 V2000
    1.1512    0.1964   -1.7699 O   0  0  0  0  0  0  0  0  0  0  0  0
   -1.0209   -1.5933    0.5755 O   0  0  0  0  0  0  0  0  0  0  0  0
   -3.4516   -2.4552    0.3653 O   0  0  0  0  0  0  0  0  0  0  0  0
    5.2633   -0.7884   -1.0971 N   0  0  0  0  0  0  0  0  0  0  0  0
    5.8756   -0.0698    0.0242 C   0  0  1  0  0  0  0  0  0  0  0  0
    3.9552   -0.2294   -1.4801 C   0  0  1  0  0  0  0  0  0  0  0  0
    5.0035   -0.2280    1.2765 C   0  0  0  0  0  0  0  0  0  0  0  0
    3.0395    0.0279   -0.2981 C   0  0  0  0  0  0  0  0  0  0  0  0
    3.5485    0.0636    1.0123 C   0  0  0  0  0  0  0  0  0  0  0  0
    1.6686    0.2485   -0.5053 C   0  0  0  0  0  0  0  0  0  0  0  0
    7.2778   -0.6231    0.2755 C   0  0  0  0  0  0  0  0  0  0  0  0
    4.1227    1.0261   -2.3465 C   0  0  0  0  0  0  0  0  0  0  0  0
    2.6835    0.3067    2.0886 C   0  0  0  0  0  0  0  0  0  0  0  0
    0.8178    0.4993    0.5713 C   0  0  0  0  0  0  0  0  0  0  0  0
    1.3251    0.5289    1.8673 C   0  0  0  0  0  0  0  0  0  0  0  0
   -0.5991    0.7268    0.3666 C   0  0  0  0  0  0  0  0  0  0  0  0
   -1.5092   -0.3310    0.3710 C   0  0  0  0  0  0  0  0  0  0  0  0
   -2.8797   -0.0985    0.1717 C   0  0  0  0  0  0  0  0  0  0  0  0
   -1.0465    2.0291    0.1631 C   0  0  0  0  0  0  0  0  0  0  0  0
   -3.3341    1.2257   -0.0353 C   0  0  0  0  0  0  0  0  0  0  0  0
   -2.4047    2.2785   -0.0367 C   0  0  0  0  0  0  0  0  0  0  0  0
   -3.8094   -1.1512    0.1729 C   0  0  0  0  0  0  0  0  0  0  0  0
   -4.7047    1.4583   -0.2348 C   0  0  0  0  0  0  0  0  0  0  0  0
   -5.6142    0.4004   -0.2305 C   0  0  0  0  0  0  0  0  0  0  0  0
   -5.1674   -0.9019   -0.0271 C   0  0  0  0  0  0  0  0  0  0  0  0
   -7.0663    0.6657   -0.4437 C   0  0  0  0  0  0  0  0  0  0  0  0
   -3.1245   -3.2120   -0.7967 C   0  0  0  0  0  0  0  0  0  0  0  0
    5.9783    0.9933   -0.2257 H   0  0  0  0  0  0  0  0  0  0  0  0
    3.4835   -0.9964   -2.1085 H   0  0  0  0  0  0  0  0  0  0  0  0
    5.3767    0.4477    2.0564 H   0  0  0  0  0  0  0  0  0  0  0  0
    5.0747   -1.2528    1.6648 H   0  0  0  0  0  0  0  0  0  0  0  0
    5.1412   -1.7676   -0.8356 H   0  0  0  0  0  0  0  0  0  0  0  0
    7.9108   -0.4988   -0.6102 H   0  0  0  0  0  0  0  0  0  0  0  0
    7.7577   -0.0933    1.1054 H   0  0  0  0  0  0  0  0  0  0  0  0
    7.2540   -1.6896    0.5264 H   0  0  0  0  0  0  0  0  0  0  0  0
    4.5054    1.8750   -1.7690 H   0  0  0  0  0  0  0  0  0  0  0  0
    4.8195    0.8368   -3.1712 H   0  0  0  0  0  0  0  0  0  0  0  0
    3.1757    1.3418   -2.7955 H   0  0  0  0  0  0  0  0  0  0  0  0
    3.0652    0.3195    3.1064 H   0  0  0  0  0  0  0  0  0  0  0  0
    0.6765    0.7171    2.7197 H   0  0  0  0  0  0  0  0  0  0  0  0
   -0.3520    2.8660    0.1557 H   0  0  0  0  0  0  0  0  0  0  0  0
    0.1972    0.3682   -1.7775 H   0  0  0  0  0  0  0  0  0  0  0  0
   -2.7314    3.3043   -0.1940 H   0  0  0  0  0  0  0  0  0  0  0  0
   -5.0641    2.4732   -0.3966 H   0  0  0  0  0  0  0  0  0  0  0  0
   -5.8748   -1.7280   -0.0241 H   0  0  0  0  0  0  0  0  0  0  0  0
   -0.0575   -1.6081    0.6765 H   0  0  0  0  0  0  0  0  0  0  0  0
   -7.2970    0.6543   -1.5135 H   0  0  0  0  0  0  0  0  0  0  0  0
   -7.6850   -0.0876    0.0558 H   0  0  0  0  0  0  0  0  0  0  0  0
   -7.3536    1.6393   -0.0321 H   0  0  0  0  0  0  0  0  0  0  0  0
   -2.4662   -2.6565   -1.4725 H   0  0  0  0  0  0  0  0  0  0  0  0
   -4.0409   -3.4927   -1.3253 H   0  0  0  0  0  0  0  0  0  0  0  0
   -2.6121   -4.1244   -0.4796 H   0  0  0  0  0  0  0  0  0  0  0  0
  1 10  1  0  0  0  0
  1 42  1  0  0  0  0
  2 17  1  0  0  0  0
  2 46  1  0  0  0  0
  3 22  1  0  0  0  0
  3 27  1  0  0  0  0
  4  5  1  0  0  0  0
  4  6  1  0  0  0  0
  4 32  1  0  0  0  0
  5  7  1  0  0  0  0
  5 11  1  0  0  0  0
  5 28  1  0  0  0  0
  6  8  1  0  0  0  0
  6 12  1  0  0  0  0
  6 29  1  0  0  0  0
  7  9  1  0  0  0  0
  7 30  1  0  0  0  0
  7 31  1  0  0  0  0
  8  9  2  0  0  0  0
  8 10  1  0  0  0  0
  9 13  1  0  0  0  0
 10 14  2  0  0  0  0
 11 33  1  0  0  0  0
 11 34  1  0  0  0  0
 11 35  1  0  0  0  0
 12 36  1  0  0  0  0
 12 37  1  0  0  0  0
 12 38  1  0  0  0  0
 13 15  2  0  0  0  0
 13 39  1  0  0  0  0
 14 15  1  0  0  0  0
 14 16  1  0  0  0  0
 15 40  1  0  0  0  0
 16 17  2  0  0  0  0
 16 19  1  0  0  0  0
 17 18  1  0  0  0  0
 18 20  2  0  0  0  0
 18 22  1  0  0  0  0
 19 21  2  0  0  0  0
 19 41  1  0  0  0  0
 20 21  1  0  0  0  0
 20 23  1  0  0  0  0
 21 43  1  0  0  0  0
 22 25  2  0  0  0  0
 23 24  2  0  0  0  0
 23 44  1  0  0  0  0
 24 25  1  0  0  0  0
 24 26  1  0  0  0  0
 25 45  1  0  0  0  0
 26 47  1  0  0  0  0
 26 48  1  0  0  0  0
 26 49  1  0  0  0  0
 27 50  1  0  0  0  0
 27 51  1  0  0  0  0
 27 52  1  0  0  0  0
M  END
> <PUBCHEM_COMPOUND_CID>
178558

> <PUBCHEM_CONFORMER_RMSD>
0.6

> <PUBCHEM_CONFORMER_DIVERSEORDER>
2
3
4
5
1

> <PUBCHEM_MMFF94_PARTIAL_CHARGES>
30
1 -0.53
10 0.08
13 -0.15
15 -0.15
17 0.08
19 -0.15
2 -0.53
21 -0.15
22 0.08
23 -0.15
24 -0.14
25 -0.15
26 0.14
27 0.28
3 -0.36
32 0.36
39 0.15
4 -0.9
40 0.15
41 0.15
42 0.45
43 0.15
44 0.15
45 0.15
46 0.45
5 0.27
6 0.41
7 0.14
8 -0.14
9 -0.14

> <PUBCHEM_EFFECTIVE_ROTOR_COUNT>
2.8

> <PUBCHEM_PHARMACOPHORE_FEATURES>
9
1 1 donor
1 2 donor
1 3 acceptor
1 4 cation
1 4 donor
6 16 17 18 19 20 21 rings
6 18 20 22 23 24 25 rings
6 4 5 6 7 8 9 rings
6 8 9 10 13 14 15 rings

> <PUBCHEM_HEAVY_ATOM_COUNT>
27

> <PUBCHEM_ATOM_DEF_STEREO_COUNT>
2

> <PUBCHEM_ATOM_UDEF_STEREO_COUNT>
0

> <PUBCHEM_BOND_DEF_STEREO_COUNT>
0

> <PUBCHEM_BOND_UDEF_STEREO_COUNT>
0

> <PUBCHEM_ISOTOPIC_ATOM_COUNT>
0

> <PUBCHEM_COMPONENT_COUNT>
1

> <PUBCHEM_CACTVS_TAUTO_COUNT>
54

> <PUBCHEM_CONFORMER_ID>
0002B97E00000002

> <PUBCHEM_MMFF94_ENERGY>
95.212

> <PUBCHEM_FEATURE_SELFOVERLAP>
45.72

> <PUBCHEM_SHAPE_FINGERPRINT>
10 15 17703213089098230762
11045977 3 17917704738236927827
11089746 13 17240206521489920308
11315181 36 18409171012636172529
11524674 6 17203321221844966071
11796584 16 18342176674435213194
12236239 1 17603302639612245704
12516196 113 16056879121842986344
12616971 3 17022896861147503466
12741549 16 17131543960354285568
12788726 201 18187362078511336193
13402501 40 17989771089892799671
13583140 156 17846492634566130638
13617811 41 18408040689641080429
13782708 43 17703788132593231223
14251751 18 18272372009771259302
14294032 229 17972316218865937669
14386348 63 17846780710770126186
14617045 38 18413107238910544747
14910302 57 18340776918527757486
15183329 4 18040440970746061574
15361156 5 17917425488269891773
17492 89 17908698780929998079
17844677 252 18202004330344876888
1813 80 14835860468872761208
18681886 176 18187080685275783680
19489759 90 18411138013141839201
200 152 16732698333275385048
20511986 3 17822282513582388700
20645477 70 16343704309434205620
21033648 29 17203030903361664448
21033650 10 18046087985737526540
21133410 230 10576109293269623031
21133410 52 15033974159010132726
21267235 1 18335983156011795147
21623969 137 16630527332551532652
21641784 216 14129625377192760510
21781051 124 18261684765914425851
21792961 116 17561091277033170724
22122407 14 16298678183481196461
22224240 67 14764338337519383726
23402539 116 18334573551022090500
23557571 272 18130507448614024760
23559900 14 18342171206482714888
23569914 2 14349132101963064743
23569943 247 17630898088780606591
23576562 1 17895747535151195661
29717793 49 17967819327876106614
3004659 81 18113900463979891964
335352 9 18409441493546151165
3383291 50 18342457089130196611
34797466 226 18342181072660923108
4015057 19 17059756932550506057
437815 12 17632293484435336161
474 4 16443923789600412076
5265222 85 18339927133895313590
59755656 215 18342736286803224751
59755656 520 16370728145055822883
602551 16 18413103987451327618
67856867 119 18187651370587007804
6823239 73 18271802466768823608
7495541 125 18131070472130204488

> <PUBCHEM_SHAPE_MULTIPOLES>
533.06
15.82
1.97
1.52
3.99
1.09
0.21
1.8
2.08
-3.22
0.24
2.48
-0.21
0

> <PUBCHEM_SHAPE_SELFOVERLAP>
1179.017

> <PUBCHEM_SHAPE_VOLUME>
287.8

> <PUBCHEM_COORDINATE_TYPE>
2
5
10

$$$$
