Dioncopeltine-A
  -OEChem-01222104463D

 53 56  0     1  0  0  0  0  0999 V2000
    0.9211    0.2848   -1.7789 O   0  0  0  0  0  0  0  0  0  0  0  0
   -4.9567    1.2247   -0.2956 O   0  0  0  0  0  0  0  0  0  0  0  0
    0.0187    3.2947   -0.6143 O   0  0  0  0  0  0  0  0  0  0  0  0
   -5.4149   -1.3296   -0.5953 O   0  0  0  0  0  0  0  0  0  0  0  0
    5.0308   -0.7090   -1.1050 N   0  0  0  0  0  0  0  0  0  0  0  0
    5.5687   -0.2059    0.1624 C   0  0  1  0  0  0  0  0  0  0  0  0
    3.7225   -0.1190   -1.4378 C   0  0  1  0  0  0  0  0  0  0  0  0
    4.6484   -0.6251    1.3163 C   0  0  0  0  0  0  0  0  0  0  0  0
    2.7477   -0.1183   -0.2752 C   0  0  0  0  0  0  0  0  0  0  0  0
    3.1974   -0.3242    1.0413 C   0  0  0  0  0  0  0  0  0  0  0  0
    1.3806    0.1041   -0.5038 C   0  0  0  0  0  0  0  0  0  0  0  0
    0.4754    0.1205    0.5575 C   0  0  0  0  0  0  0  0  0  0  0  0
    3.8851    1.2842   -2.0374 C   0  0  0  0  0  0  0  0  0  0  0  0
    6.9765   -0.7623    0.3719 C   0  0  0  0  0  0  0  0  0  0  0  0
    2.2783   -0.3155    2.1001 C   0  0  0  0  0  0  0  0  0  0  0  0
   -0.9381    0.3480    0.3304 C   0  0  0  0  0  0  0  0  0  0  0  0
    0.9241   -0.0885    1.8585 C   0  0  0  0  0  0  0  0  0  0  0  0
   -1.8260   -0.7168    0.0834 C   0  0  0  0  0  0  0  0  0  0  0  0
   -1.4111    1.6640    0.3621 C   0  0  0  0  0  0  0  0  0  0  0  0
   -3.1983   -0.4455   -0.1322 C   0  0  0  0  0  0  0  0  0  0  0  0
   -2.7603    1.9308    0.1499 C   0  0  0  0  0  0  0  0  0  0  0  0
   -3.6493    0.8840   -0.0958 C   0  0  0  0  0  0  0  0  0  0  0  0
   -1.3749   -2.0462    0.0468 C   0  0  0  0  0  0  0  0  0  0  0  0
   -0.4966    2.8196    0.6216 C   0  0  0  0  0  0  0  0  0  0  0  0
   -4.0790   -1.5115   -0.3782 C   0  0  0  0  0  0  0  0  0  0  0  0
   -2.2639   -3.0930   -0.1987 C   0  0  0  0  0  0  0  0  0  0  0  0
   -3.6134   -2.8264   -0.4108 C   0  0  0  0  0  0  0  0  0  0  0  0
   -5.7926    1.2771    0.8568 C   0  0  0  0  0  0  0  0  0  0  0  0
    5.6460    0.8877    0.1269 H   0  0  0  0  0  0  0  0  0  0  0  0
    3.3050   -0.7614   -2.2243 H   0  0  0  0  0  0  0  0  0  0  0  0
    4.9638   -0.1040    2.2290 H   0  0  0  0  0  0  0  0  0  0  0  0
    4.7374   -1.7035    1.5034 H   0  0  0  0  0  0  0  0  0  0  0  0
    4.9307   -1.7229   -1.0428 H   0  0  0  0  0  0  0  0  0  0  0  0
    4.2136    2.0143   -1.2895 H   0  0  0  0  0  0  0  0  0  0  0  0
    4.6227    1.2753   -2.8480 H   0  0  0  0  0  0  0  0  0  0  0  0
    2.9481    1.6574   -2.4627 H   0  0  0  0  0  0  0  0  0  0  0  0
    7.6431   -0.4532   -0.4409 H   0  0  0  0  0  0  0  0  0  0  0  0
    7.4013   -0.3914    1.3109 H   0  0  0  0  0  0  0  0  0  0  0  0
    6.9780   -1.8575    0.4117 H   0  0  0  0  0  0  0  0  0  0  0  0
    2.6144   -0.4902    3.1191 H   0  0  0  0  0  0  0  0  0  0  0  0
    0.2329   -0.0846    2.6981 H   0  0  0  0  0  0  0  0  0  0  0  0
   -3.1283    2.9543    0.1701 H   0  0  0  0  0  0  0  0  0  0  0  0
   -0.0359    0.4378   -1.7996 H   0  0  0  0  0  0  0  0  0  0  0  0
   -0.3329   -2.3118    0.2047 H   0  0  0  0  0  0  0  0  0  0  0  0
   -1.0473    3.6399    1.0976 H   0  0  0  0  0  0  0  0  0  0  0  0
    0.3316    2.5841    1.2950 H   0  0  0  0  0  0  0  0  0  0  0  0
   -1.9025   -4.1170   -0.2245 H   0  0  0  0  0  0  0  0  0  0  0  0
   -4.2982   -3.6485   -0.6014 H   0  0  0  0  0  0  0  0  0  0  0  0
    0.5939    4.0520   -0.4118 H   0  0  0  0  0  0  0  0  0  0  0  0
   -5.5592   -0.4490   -0.9773 H   0  0  0  0  0  0  0  0  0  0  0  0
   -5.6482    0.4065    1.5048 H   0  0  0  0  0  0  0  0  0  0  0  0
   -6.8345    1.2990    0.5255 H   0  0  0  0  0  0  0  0  0  0  0  0
   -5.5874    2.1923    1.4210 H   0  0  0  0  0  0  0  0  0  0  0  0
  1 11  1  0  0  0  0
  1 43  1  0  0  0  0
  2 22  1  0  0  0  0
  2 28  1  0  0  0  0
  3 24  1  0  0  0  0
  3 49  1  0  0  0  0
  4 25  1  0  0  0  0
  4 50  1  0  0  0  0
  5  6  1  0  0  0  0
  5  7  1  0  0  0  0
  5 33  1  0  0  0  0
  6  8  1  0  0  0  0
  6 14  1  0  0  0  0
  6 29  1  0  0  0  0
  7  9  1  0  0  0  0
  7 13  1  0  0  0  0
  7 30  1  0  0  0  0
  8 10  1  0  0  0  0
  8 31  1  0  0  0  0
  8 32  1  0  0  0  0
  9 10  2  0  0  0  0
  9 11  1  0  0  0  0
 10 15  1  0  0  0  0
 11 12  2  0  0  0  0
 12 16  1  0  0  0  0
 12 17  1  0  0  0  0
 13 34  1  0  0  0  0
 13 35  1  0  0  0  0
 13 36  1  0  0  0  0
 14 37  1  0  0  0  0
 14 38  1  0  0  0  0
 14 39  1  0  0  0  0
 15 17  2  0  0  0  0
 15 40  1  0  0  0  0
 16 18  2  0  0  0  0
 16 19  1  0  0  0  0
 17 41  1  0  0  0  0
 18 20  1  0  0  0  0
 18 23  1  0  0  0  0
 19 21  2  0  0  0  0
 19 24  1  0  0  0  0
 20 22  2  0  0  0  0
 20 25  1  0  0  0  0
 21 22  1  0  0  0  0
 21 42  1  0  0  0  0
 23 26  2  0  0  0  0
 23 44  1  0  0  0  0
 24 45  1  0  0  0  0
 24 46  1  0  0  0  0
 25 27  2  0  0  0  0
 26 27  1  0  0  0  0
 26 47  1  0  0  0  0
 27 48  1  0  0  0  0
 28 51  1  0  0  0  0
 28 52  1  0  0  0  0
 28 53  1  0  0  0  0
M  END
> <PUBCHEM_COMPOUND_CID>
185971

> <PUBCHEM_CONFORMER_RMSD>
0.8

> <PUBCHEM_CONFORMER_DIVERSEORDER>
1
4
3
2

> <PUBCHEM_MMFF94_PARTIAL_CHARGES>
32
1 -0.53
10 -0.14
11 0.08
15 -0.15
17 -0.15
19 -0.14
2 -0.36
21 -0.15
22 0.08
23 -0.15
24 0.42
25 0.08
26 -0.15
27 -0.15
28 0.28
3 -0.68
33 0.36
4 -0.53
40 0.15
41 0.15
42 0.15
43 0.45
44 0.15
47 0.15
48 0.15
49 0.4
5 -0.9
50 0.45
6 0.27
7 0.41
8 0.14
9 -0.14

> <PUBCHEM_EFFECTIVE_ROTOR_COUNT>
3.8

> <PUBCHEM_PHARMACOPHORE_FEATURES>
11
1 1 donor
1 2 acceptor
1 3 acceptor
1 3 donor
1 4 donor
1 5 cation
1 5 donor
6 16 18 19 20 21 22 rings
6 18 20 23 25 26 27 rings
6 5 6 7 8 9 10 rings
6 9 10 11 12 15 17 rings

> <PUBCHEM_HEAVY_ATOM_COUNT>
28

> <PUBCHEM_ATOM_DEF_STEREO_COUNT>
2

> <PUBCHEM_ATOM_UDEF_STEREO_COUNT>
0

> <PUBCHEM_BOND_DEF_STEREO_COUNT>
0

> <PUBCHEM_BOND_UDEF_STEREO_COUNT>
0

> <PUBCHEM_ISOTOPIC_ATOM_COUNT>
0

> <PUBCHEM_COMPONENT_COUNT>
1

> <PUBCHEM_CACTVS_TAUTO_COUNT>
32

> <PUBCHEM_CONFORMER_ID>
0002D67300000001

> <PUBCHEM_MMFF94_ENERGY>
100.3649

> <PUBCHEM_FEATURE_SELFOVERLAP>
55.87

> <PUBCHEM_SHAPE_FINGERPRINT>
1100329 8 18412263956742504425
11796584 16 18272934908380661190
12166972 35 17749390365098248812
12236239 1 17967250879794723728
12553582 1 18337669814964283171
12616971 3 17821733844658697724
12741549 16 16917061157550011816
12788726 201 18337120032858053072
13140716 1 18340203098819387097
13402501 40 17846779598284322142
13583140 156 17774995770510993974
13726171 33 18125748878137192905
13782708 43 17418088862242094318
13911987 19 15213313993347107074
13947920 75 18408319973682913834
14251757 5 18336550499047145743
14386348 63 17418094329956656914
14790565 3 18268443330435603393
14910302 57 18198633138069053598
16752209 62 18409439311207106907
17349148 13 17458338642161865776
18681886 176 18335697274224513434
19319366 153 17821723914605074499
200 152 17458343013921854960
20511986 3 17968085443701737204
20600515 1 18271232898281445897
21033648 29 17274810376787123459
21033650 10 18120678863424563344
21133410 230 10145171137974253629
21267235 1 18410291458657268211
21623969 137 16271928233749981246
23366157 5 17972597968250582277
23402539 116 18413102853342350837
23557571 272 18201999915545367968
23559900 14 18273209803160830768
23576562 1 18114453561880126765
3004659 81 18187642531354089918
3178227 256 18337408075995313833
335352 9 18411974776899854653
4280585 95 18410284839648408680
474 4 17024038240549303308
5104073 3 18342178924617820705
5265222 85 18200877409053274174
602551 16 18342734135246084226
67856867 119 18262521519769184052
6823239 73 18201432631774838048
70251023 43 17832148595076079587
7226269 152 18131350774501689889

> <PUBCHEM_SHAPE_MULTIPOLES>
547.77
12.71
2.67
1.47
7.51
0.12
0.03
-2.68
-0.61
-3.67
-0.31
1.86
0.18
-1.19

> <PUBCHEM_SHAPE_SELFOVERLAP>
1211.967

> <PUBCHEM_SHAPE_VOLUME>
295.3

> <PUBCHEM_COORDINATE_TYPE>
2
5
10

$$$$
