Eudesma-4(15),7-dien-1.beta â€“ol
  -OEChem-12152007173D

 40 41  0     1  0  0  0  0  0999 V2000
    2.6367    2.4140    0.0741 O   0  0  0  0  0  0  0  0  0  0  0  0
    0.8457    0.7352    0.1239 C   0  0  1  0  0  0  0  0  0  0  0  0
    0.4835   -0.6985   -0.3884 C   0  0  2  0  0  0  0  0  0  0  0  0
    2.2434    1.1444   -0.4405 C   0  0  2  0  0  0  0  0  0  0  0  0
   -0.2271    1.7328   -0.4035 C   0  0  0  0  0  0  0  0  0  0  0  0
   -0.9316   -1.1234    0.0723 C   0  0  0  0  0  0  0  0  0  0  0  0
    3.3348    0.1137   -0.1351 C   0  0  0  0  0  0  0  0  0  0  0  0
    1.6005   -1.6931   -0.0873 C   0  0  0  0  0  0  0  0  0  0  0  0
    2.9522   -1.2803   -0.6204 C   0  0  0  0  0  0  0  0  0  0  0  0
    0.8559    0.7969    1.6756 C   0  0  0  0  0  0  0  0  0  0  0  0
   -1.9737   -0.0443   -0.0900 C   0  0  0  0  0  0  0  0  0  0  0  0
   -1.6418    1.2376   -0.3137 C   0  0  0  0  0  0  0  0  0  0  0  0
   -3.4035   -0.4839    0.0248 C   0  0  0  0  0  0  0  0  0  0  0  0
    1.4594   -2.8511    0.5776 C   0  0  0  0  0  0  0  0  0  0  0  0
   -4.0762    0.2117    1.2035 C   0  0  0  0  0  0  0  0  0  0  0  0
   -4.1583   -0.2116   -1.2730 C   0  0  0  0  0  0  0  0  0  0  0  0
    0.4346   -0.6435   -1.4885 H   0  0  0  0  0  0  0  0  0  0  0  0
    2.1806    1.2481   -1.5319 H   0  0  0  0  0  0  0  0  0  0  0  0
   -0.0355    1.9717   -1.4575 H   0  0  0  0  0  0  0  0  0  0  0  0
   -0.1581    2.6791    0.1475 H   0  0  0  0  0  0  0  0  0  0  0  0
   -0.9283   -1.4276    1.1263 H   0  0  0  0  0  0  0  0  0  0  0  0
   -1.2315   -2.0013   -0.5153 H   0  0  0  0  0  0  0  0  0  0  0  0
    3.5537    0.0989    0.9398 H   0  0  0  0  0  0  0  0  0  0  0  0
    4.2719    0.4265   -0.6130 H   0  0  0  0  0  0  0  0  0  0  0  0
    3.7359   -1.9887   -0.3265 H   0  0  0  0  0  0  0  0  0  0  0  0
    2.9165   -1.2910   -1.7171 H   0  0  0  0  0  0  0  0  0  0  0  0
   -0.1275    0.5801    2.1048 H   0  0  0  0  0  0  0  0  0  0  0  0
    1.5611    0.0827    2.1112 H   0  0  0  0  0  0  0  0  0  0  0  0
    1.1380    1.7940    2.0316 H   0  0  0  0  0  0  0  0  0  0  0  0
   -2.4135    1.9915   -0.4425 H   0  0  0  0  0  0  0  0  0  0  0  0
   -3.4404   -1.5647    0.2124 H   0  0  0  0  0  0  0  0  0  0  0  0
    2.0283    3.0824   -0.2828 H   0  0  0  0  0  0  0  0  0  0  0  0
    0.5071   -3.1874    0.9690 H   0  0  0  0  0  0  0  0  0  0  0  0
    2.3084   -3.5059    0.7471 H   0  0  0  0  0  0  0  0  0  0  0  0
   -4.1686    1.2933    1.0559 H   0  0  0  0  0  0  0  0  0  0  0  0
   -3.5205    0.0423    2.1329 H   0  0  0  0  0  0  0  0  0  0  0  0
   -5.0881   -0.1830    1.3496 H   0  0  0  0  0  0  0  0  0  0  0  0
   -3.6603   -0.6855   -2.1264 H   0  0  0  0  0  0  0  0  0  0  0  0
   -4.2526    0.8587   -1.4869 H   0  0  0  0  0  0  0  0  0  0  0  0
   -5.1729   -0.6216   -1.2150 H   0  0  0  0  0  0  0  0  0  0  0  0
  1  4  1  0  0  0  0
  1 32  1  0  0  0  0
  2  3  1  0  0  0  0
  2  4  1  0  0  0  0
  2  5  1  0  0  0  0
  2 10  1  0  0  0  0
  3  6  1  0  0  0  0
  3  8  1  0  0  0  0
  3 17  1  0  0  0  0
  4  7  1  0  0  0  0
  4 18  1  0  0  0  0
  5 12  1  0  0  0  0
  5 19  1  0  0  0  0
  5 20  1  0  0  0  0
  6 11  1  0  0  0  0
  6 21  1  0  0  0  0
  6 22  1  0  0  0  0
  7  9  1  0  0  0  0
  7 23  1  0  0  0  0
  7 24  1  0  0  0  0
  8  9  1  0  0  0  0
  8 14  2  0  0  0  0
  9 25  1  0  0  0  0
  9 26  1  0  0  0  0
 10 27  1  0  0  0  0
 10 28  1  0  0  0  0
 10 29  1  0  0  0  0
 11 12  2  0  0  0  0
 11 13  1  0  0  0  0
 12 30  1  0  0  0  0
 13 15  1  0  0  0  0
 13 16  1  0  0  0  0
 13 31  1  0  0  0  0
 14 33  1  0  0  0  0
 14 34  1  0  0  0  0
 15 35  1  0  0  0  0
 15 36  1  0  0  0  0
 15 37  1  0  0  0  0
 16 38  1  0  0  0  0
 16 39  1  0  0  0  0
 16 40  1  0  0  0  0
M  END
> <PUBCHEM_COMPOUND_CID>
527304

> <PUBCHEM_CONFORMER_RMSD>
0.6

> <PUBCHEM_CONFORMER_DIVERSEORDER>
1
2

> <PUBCHEM_MMFF94_PARTIAL_CHARGES>
15
1 -0.68
11 -0.28
12 -0.29
13 0.14
14 -0.3
3 0.14
30 0.15
32 0.4
33 0.15
34 0.15
4 0.28
5 0.14
6 0.14
8 -0.28
9 0.14

> <PUBCHEM_EFFECTIVE_ROTOR_COUNT>
2

> <PUBCHEM_PHARMACOPHORE_FEATURES>
5
1 1 acceptor
1 1 donor
3 13 15 16 hydrophobe
6 2 3 4 7 8 9 rings
6 2 3 5 6 11 12 rings

> <PUBCHEM_HEAVY_ATOM_COUNT>
16

> <PUBCHEM_ATOM_DEF_STEREO_COUNT>
0

> <PUBCHEM_ATOM_UDEF_STEREO_COUNT>
0

> <PUBCHEM_BOND_DEF_STEREO_COUNT>
0

> <PUBCHEM_BOND_UDEF_STEREO_COUNT>
0

> <PUBCHEM_ISOTOPIC_ATOM_COUNT>
0

> <PUBCHEM_COMPONENT_COUNT>
1

> <PUBCHEM_CACTVS_TAUTO_COUNT>
1

> <PUBCHEM_CONFORMER_ID>
00080BC800000001

> <PUBCHEM_MMFF94_ENERGY>
34.986

> <PUBCHEM_FEATURE_SELFOVERLAP>
25.386

> <PUBCHEM_SHAPE_FINGERPRINT>
10608611 8 18334853901013132573
10967382 1 18409731780946336094
10980938 120 18413669106162740791
11132069 177 18263353845048104777
11471102 20 18410009931396748727
11578080 2 17629451173858147897
12423570 1 17324949421616241992
12553582 1 18266461997064257223
12932764 1 17775562057448210929
13140716 1 18337111292810855834
13221675 6 18412265021224220799
13296908 3 17748828518808497169
13380536 305 18410017671434192148
13705890 14 17023194785806986986
13897977 150 18338237183884819685
14251717 144 18412821404278109135
14252887 29 17968391121135568121
14817 1 10181312630830046650
15219456 202 18334011675142971445
15375462 189 18271248214118758579
15536298 74 18272934920742550604
15775835 57 18130510837242396757
16945 1 18409167684236679158
17844478 74 18114471084655246181
18186145 218 18411144657493026621
19422 9 17917997187224279765
200 152 18201429269010292421
20201158 50 18334858298816907395
20279233 1 17967249806533103363
20645477 70 18341044147414568599
20820808 20 18339081596278300440
21452121 199 17828464900257307658
21501502 16 18266458694149549405
2255824 54 18412265038435731942
22854114 111 18411702092671490428
2334 1 18049162468850300766
23402655 69 18341890766956846669
23419403 2 15001009258305126906
23493267 7 17240480282657615041
23559900 14 18260822644906481810
23598291 2 18060416911385642295
25 1 18340775952291905964
257057 1 17686889532486130122
2748010 2 18119822545039041734
2871803 45 18336263461781643631
3286 77 17417799669430081257
33824 294 18408601491535606483
528886 8 18336826502177141752
581208 293 18341043098930663077
633830 44 18200327622446595461
7364860 26 18413388726708431318
77492 1 17775569736744111223
81228 2 17044569047043039530
81539 233 18187079602606167996

> <PUBCHEM_SHAPE_MULTIPOLES>
323.4
6.29
2.25
1.07
5.33
0.44
0.26
0.37
-0.59
-2.02
0.16
0.52
-0.07
-0.05

> <PUBCHEM_SHAPE_SELFOVERLAP>
662.557

> <PUBCHEM_SHAPE_VOLUME>
185.5

> <PUBCHEM_COORDINATE_TYPE>
2
5
10

$$$$
