Napabucasin
  -OEChem-01262104413D

 26 28  0     0  0  0  0  0  0999 V2000
   -1.8744    0.9496    0.0001 O   0  0  0  0  0  0  0  0  0  0  0  0
    0.8207   -2.7725    0.0004 O   0  0  0  0  0  0  0  0  0  0  0  0
    0.4230    2.6348    0.0000 O   0  0  0  0  0  0  0  0  0  0  0  0
   -4.8750   -0.9590   -0.0006 O   0  0  0  0  0  0  0  0  0  0  0  0
   -0.5312   -0.8597    0.0005 C   0  0  0  0  0  0  0  0  0  0  0  0
   -0.5910    0.5125    0.0004 C   0  0  0  0  0  0  0  0  0  0  0  0
    1.9507   -0.6757   -0.0001 C   0  0  0  0  0  0  0  0  0  0  0  0
    1.8510    0.7353    0.0001 C   0  0  0  0  0  0  0  0  0  0  0  0
    0.7348   -1.5520    0.0004 C   0  0  0  0  0  0  0  0  0  0  0  0
    0.5182    1.4149    0.0004 C   0  0  0  0  0  0  0  0  0  0  0  0
   -1.8711   -1.3084    0.0002 C   0  0  0  0  0  0  0  0  0  0  0  0
   -2.6503   -0.1705   -0.0001 C   0  0  0  0  0  0  0  0  0  0  0  0
    3.2126   -1.2799   -0.0006 C   0  0  0  0  0  0  0  0  0  0  0  0
    3.0110    1.5167    0.0002 C   0  0  0  0  0  0  0  0  0  0  0  0
    4.3635   -0.4901   -0.0007 C   0  0  0  0  0  0  0  0  0  0  0  0
    4.2631    0.9011   -0.0002 C   0  0  0  0  0  0  0  0  0  0  0  0
   -4.0631    0.0016    0.0000 C   0  0  0  0  0  0  0  0  0  0  0  0
   -4.6926    1.4014   -0.0004 C   0  0  0  0  0  0  0  0  0  0  0  0
   -2.2262   -2.3294    0.0003 H   0  0  0  0  0  0  0  0  0  0  0  0
    3.3217   -2.3610   -0.0008 H   0  0  0  0  0  0  0  0  0  0  0  0
    2.9616    2.6021    0.0005 H   0  0  0  0  0  0  0  0  0  0  0  0
    5.3423   -0.9613   -0.0011 H   0  0  0  0  0  0  0  0  0  0  0  0
    5.1641    1.5080   -0.0001 H   0  0  0  0  0  0  0  0  0  0  0  0
   -4.3795    1.9412   -0.8980 H   0  0  0  0  0  0  0  0  0  0  0  0
   -4.3774    1.9428    0.8955 H   0  0  0  0  0  0  0  0  0  0  0  0
   -5.7833    1.3187    0.0011 H   0  0  0  0  0  0  0  0  0  0  0  0
  1  6  1  0  0  0  0
  1 12  1  0  0  0  0
  2  9  2  0  0  0  0
  3 10  2  0  0  0  0
  4 17  2  0  0  0  0
  5  6  2  0  0  0  0
  5  9  1  0  0  0  0
  5 11  1  0  0  0  0
  6 10  1  0  0  0  0
  7  8  1  0  0  0  0
  7  9  1  0  0  0  0
  7 13  2  0  0  0  0
  8 10  1  0  0  0  0
  8 14  2  0  0  0  0
 11 12  2  0  0  0  0
 11 19  1  0  0  0  0
 12 17  1  0  0  0  0
 13 15  1  0  0  0  0
 13 20  1  0  0  0  0
 14 16  1  0  0  0  0
 14 21  1  0  0  0  0
 15 16  2  0  0  0  0
 15 22  1  0  0  0  0
 16 23  1  0  0  0  0
 17 18  1  0  0  0  0
 18 24  1  0  0  0  0
 18 25  1  0  0  0  0
 18 26  1  0  0  0  0
M  END
> <PUBCHEM_COMPOUND_CID>
10331844

> <PUBCHEM_CONFORMER_RMSD>
0.6

> <PUBCHEM_CONFORMER_DIVERSEORDER>
1
2

> <PUBCHEM_MMFF94_PARTIAL_CHARGES>
23
1 -0.28
10 0.57
11 -0.15
12 0.05
13 -0.15
14 -0.15
15 -0.15
16 -0.15
17 0.59
18 0.06
19 0.15
2 -0.57
20 0.15
21 0.15
22 0.15
23 0.15
3 -0.57
4 -0.57
5 -0.09
6 0.05
7 0.09
8 0.09
9 0.57

> <PUBCHEM_EFFECTIVE_ROTOR_COUNT>
1

> <PUBCHEM_PHARMACOPHORE_FEATURES>
7
1 1 acceptor
1 2 acceptor
1 3 acceptor
1 4 acceptor
5 1 5 6 11 12 rings
6 5 6 7 8 9 10 rings
6 7 8 13 14 15 16 rings

> <PUBCHEM_HEAVY_ATOM_COUNT>
18

> <PUBCHEM_ATOM_DEF_STEREO_COUNT>
0

> <PUBCHEM_ATOM_UDEF_STEREO_COUNT>
0

> <PUBCHEM_BOND_DEF_STEREO_COUNT>
0

> <PUBCHEM_BOND_UDEF_STEREO_COUNT>
0

> <PUBCHEM_ISOTOPIC_ATOM_COUNT>
0

> <PUBCHEM_COMPONENT_COUNT>
1

> <PUBCHEM_CACTVS_TAUTO_COUNT>
2

> <PUBCHEM_CONFORMER_ID>
009DA6C400000001

> <PUBCHEM_MMFF94_ENERGY>
37.2247

> <PUBCHEM_FEATURE_SELFOVERLAP>
35.644

> <PUBCHEM_SHAPE_FINGERPRINT>
10411042 1 17546165199500150287
10967382 1 18410575085058912674
10980938 120 18410012117730358971
11132069 177 18411695508808437610
11471102 20 18410571777543555349
11806522 49 18411698820286349007
12236239 1 17775286067023255539
13140716 1 18410284852765296130
13380535 76 18408605881029301251
13862211 1 18410568491915114538
14178342 30 17835503200846413096
14251717 144 18411417319196975663
14790565 3 18410301327949146052
15196674 1 18410855455843750501
15230672 131 13362581485912816555
15536298 74 18343584040490824886
15848702 151 17631463280099703566
1601671 61 18411138000367888953
16945 1 18194683670631962210
193761 8 17834395623032567492
19591789 44 18410855434385089134
200 152 18131066039655012701
20645477 70 18341331106542412967
21267235 1 18411428301512922894
21421861 104 17753610139831663699
21452121 103 18271514377980216432
221490 88 18191873542202511891
2334 1 18338517555514013986
23402539 116 18272362083953885574
23402655 69 18342734092486042549
23463225 33 18408603656446783660
23559900 14 18339923715027707338
25 1 18335416863656120831
2748010 2 18410577322805367806
2871803 45 18337107869700529366
335352 9 18338797810319066910
34934 24 18339636841329326954
350125 39 18409729526663953732
4072396 5 18263347136478006826
4214541 1 18410293605992989025
495365 180 17346308358604226080
4990 188 17988651791308233198
5104073 3 18410012130810310675
528886 8 18411414033805418226
537710 114 18410016554621642260
53812653 166 18341610468700896176
69090 78 18342453772344039342
8272917 22 18341336574309989783
9709674 26 18411143523775167335
9981440 41 17259050226149306849

> <PUBCHEM_SHAPE_MULTIPOLES>
346.95
8.56
2.19
0.6
4.98
0.06
0
-0.98
0
-0.52
0
-0.03
0
0

> <PUBCHEM_SHAPE_SELFOVERLAP>
782.254

> <PUBCHEM_SHAPE_VOLUME>
183.4

> <PUBCHEM_COORDINATE_TYPE>
2
5
10

$$$$
