Norepinephrine-bitartrate
  -OEChem-01262104442D

 37 36  0     1  0  0  0  0  0999 V2000
    1.6952    9.9300    0.0000 O   0  0  0  0  0  0  0  0  0  0  0  0
    0.8292    6.4300    0.0000 O   0  0  0  0  0  0  0  0  0  0  0  0
    2.5612    5.4300    0.0000 O   0  0  0  0  0  0  0  0  0  0  0  0
    1.7320    0.3100    0.0000 O   0  0  0  0  0  0  0  0  0  0  0  0
    2.5981    2.8100    0.0000 O   0  0  0  0  0  0  0  0  0  0  0  0
    0.0000    1.3100    0.0000 O   0  5  0  0  0  0  0  0  0  0  0  0
    4.3301    1.8100    0.0000 O   0  5  0  0  0  0  0  0  0  0  0  0
    0.8660    2.8100    0.0000 O   0  0  0  0  0  0  0  0  0  0  0  0
    3.4641    0.3100    0.0000 O   0  0  0  0  0  0  0  0  0  0  0  0
    3.4273   10.9300    0.0000 N   0  0  0  0  0  0  0  0  0  0  0  0
    2.5612    9.4300    0.0000 C   0  0  3  0  0  0  0  0  0  0  0  0
    2.5612    8.4300    0.0000 C   0  0  0  0  0  0  0  0  0  0  0  0
    3.4273    9.9300    0.0000 C   0  0  0  0  0  0  0  0  0  0  0  0
    1.6952    7.9300    0.0000 C   0  0  0  0  0  0  0  0  0  0  0  0
    3.4273    7.9300    0.0000 C   0  0  0  0  0  0  0  0  0  0  0  0
    1.6952    6.9300    0.0000 C   0  0  0  0  0  0  0  0  0  0  0  0
    3.4273    6.9300    0.0000 C   0  0  0  0  0  0  0  0  0  0  0  0
    2.5612    6.4300    0.0000 C   0  0  0  0  0  0  0  0  0  0  0  0
    1.7320    1.3100    0.0000 C   0  0  2  0  0  0  0  0  0  0  0  0
    2.5981    1.8100    0.0000 C   0  0  2  0  0  0  0  0  0  0  0  0
    0.8660    1.8100    0.0000 C   0  0  0  0  0  0  0  0  0  0  0  0
    3.4641    1.3100    0.0000 C   0  0  0  0  0  0  0  0  0  0  0  0
    2.0243    9.1200    0.0000 H   0  0  0  0  0  0  0  0  0  0  0  0
    3.6393    9.3474    0.0000 H   0  0  0  0  0  0  0  0  0  0  0  0
    4.0379   10.0377    0.0000 H   0  0  0  0  0  0  0  0  0  0  0  0
    1.1583    8.2400    0.0000 H   0  0  0  0  0  0  0  0  0  0  0  0
    3.9642    8.2400    0.0000 H   0  0  0  0  0  0  0  0  0  0  0  0
    3.9642    6.6200    0.0000 H   0  0  0  0  0  0  0  0  0  0  0  0
    2.2690    1.0000    0.0000 H   0  0  0  0  0  0  0  0  0  0  0  0
    3.1350    2.1200    0.0000 H   0  0  0  0  0  0  0  0  0  0  0  0
    1.6952   10.5500    0.0000 H   0  0  0  0  0  0  0  0  0  0  0  0
    3.9642   11.2400    0.0000 H   0  0  0  0  0  0  0  0  0  0  0  0
    2.8903   11.2400    0.0000 H   0  0  0  0  0  0  0  0  0  0  0  0
    0.2923    6.7400    0.0000 H   0  0  0  0  0  0  0  0  0  0  0  0
    3.0982    5.1200    0.0000 H   0  0  0  0  0  0  0  0  0  0  0  0
    1.1951    0.0000    0.0000 H   0  0  0  0  0  0  0  0  0  0  0  0
    3.1350    3.1200    0.0000 H   0  0  0  0  0  0  0  0  0  0  0  0
  1 11  1  0  0  0  0
  1 31  1  0  0  0  0
  2 16  1  0  0  0  0
  2 34  1  0  0  0  0
  3 18  1  0  0  0  0
  3 35  1  0  0  0  0
 19  4  1  1  0  0  0
  4 36  1  0  0  0  0
 20  5  1  1  0  0  0
  5 37  1  0  0  0  0
  6 21  1  0  0  0  0
  7 22  1  0  0  0  0
  8 21  2  0  0  0  0
  9 22  2  0  0  0  0
 10 13  1  0  0  0  0
 10 32  1  0  0  0  0
 10 33  1  0  0  0  0
 11 12  1  0  0  0  0
 11 13  1  0  0  0  0
 11 23  1  0  0  0  0
 12 14  2  0  0  0  0
 12 15  1  0  0  0  0
 13 24  1  0  0  0  0
 13 25  1  0  0  0  0
 14 16  1  0  0  0  0
 14 26  1  0  0  0  0
 15 17  2  0  0  0  0
 15 27  1  0  0  0  0
 16 18  2  0  0  0  0
 17 18  1  0  0  0  0
 17 28  1  0  0  0  0
 19 20  1  0  0  0  0
 19 21  1  0  0  0  0
 19 29  1  0  0  0  0
 20 22  1  0  0  0  0
 20 30  1  0  0  0  0
M  CHG  2   6  -1   7  -1
M  END
> <PUBCHEM_COMPOUND_CID>
165118

> <PUBCHEM_COMPOUND_CANONICALIZED>
1

> <PUBCHEM_CACTVS_COMPLEXITY>
265

> <PUBCHEM_CACTVS_HBOND_ACCEPTOR>
10

> <PUBCHEM_CACTVS_HBOND_DONOR>
6

> <PUBCHEM_CACTVS_ROTATABLE_BOND>
3

> <PUBCHEM_CACTVS_SUBSKEYS>
AAADccByPAAAAAAAAAAAAAAAAAAAAAAAAAAwAAAAAAAAAAABAAAAHgAQCAAADBThmAYwDoBAAgCIAiDSCAICAAAgIAAIiIFGiIgLNjaCkROAcAEl8BEJmAfT8LQOIAABAAAAQABAAAIAAACAAAAAAAAAAA==

> <PUBCHEM_IUPAC_OPENEYE_NAME>
4-(2-amino-1-hydroxy-ethyl)benzene-1,2-diol;(2R,3R)-2,3-dihydroxybutanedioate

> <PUBCHEM_IUPAC_CAS_NAME>
4-(2-amino-1-hydroxyethyl)benzene-1,2-diol;(2R,3R)-2,3-dihydroxybutanedioate

> <PUBCHEM_IUPAC_NAME_MARKUP>
4-(2-amino-1-hydroxyethyl)benzene-1,2-diol;(2<I>R</I>,3<I>R</I>)-2,3-dihydroxybutanedioate

> <PUBCHEM_IUPAC_NAME>
4-(2-amino-1-hydroxyethyl)benzene-1,2-diol;(2R,3R)-2,3-dihydroxybutanedioate

> <PUBCHEM_IUPAC_SYSTEMATIC_NAME>
4-(2-azanyl-1-oxidanyl-ethyl)benzene-1,2-diol;(2R,3R)-2,3-bis(oxidanyl)butanedioate

> <PUBCHEM_IUPAC_TRADITIONAL_NAME>
4-(2-amino-1-hydroxy-ethyl)pyrocatechol;(2R,3R)-2,3-dihydroxysuccinate

> <PUBCHEM_IUPAC_INCHI>
InChI=1S/C8H11NO3.C4H6O6/c9-4-8(12)5-1-2-6(10)7(11)3-5;5-1(3(7)8)2(6)4(9)10/h1-3,8,10-12H,4,9H2;1-2,5-6H,(H,7,8)(H,9,10)/p-2/t;1-,2-/m.1/s1

> <PUBCHEM_IUPAC_INCHIKEY>
WNPNNLQNNJQYFA-LREBCSMRSA-L

> <PUBCHEM_EXACT_MASS>
317.074681

> <PUBCHEM_MOLECULAR_FORMULA>
C12H15NO9-2

> <PUBCHEM_MOLECULAR_WEIGHT>
317.25

> <PUBCHEM_OPENEYE_CAN_SMILES>
C1=CC(=C(C=C1C(CN)O)O)O.C(C(C(=O)[O-])O)(C(=O)[O-])O

> <PUBCHEM_OPENEYE_ISO_SMILES>
C1=CC(=C(C=C1C(CN)O)O)O.[C@@H]([C@H](C(=O)[O-])O)(C(=O)[O-])O

> <PUBCHEM_CACTVS_TPSA>
207

> <PUBCHEM_MONOISOTOPIC_WEIGHT>
317.074681

> <PUBCHEM_TOTAL_CHARGE>
-2

> <PUBCHEM_HEAVY_ATOM_COUNT>
22

> <PUBCHEM_ATOM_DEF_STEREO_COUNT>
2

> <PUBCHEM_ATOM_UDEF_STEREO_COUNT>
1

> <PUBCHEM_BOND_DEF_STEREO_COUNT>
0

> <PUBCHEM_BOND_UDEF_STEREO_COUNT>
0

> <PUBCHEM_ISOTOPIC_ATOM_COUNT>
0

> <PUBCHEM_COMPONENT_COUNT>
2

> <PUBCHEM_CACTVS_TAUTO_COUNT>
-1

> <PUBCHEM_COORDINATE_TYPE>
1
5
255

> <PUBCHEM_BONDANNOTATIONS>
11  1  3
12  14  8
12  15  8
14  16  8
15  17  8
16  18  8
17  18  8
19  4  5
20  5  5

$$$$
