Strychnopentamine
  -OEChem-01222104363D

 84 91  0     1  0  0  0  0  0999 V2000
   -6.9979    1.6653   -0.5819 O   0  0  0  0  0  0  0  0  0  0  0  0
   -0.5615   -2.9828    1.4778 N   0  0  2  0  0  0  0  0  0  0  0  0
   -2.4931    0.0494    0.4783 N   0  0  0  0  0  0  0  0  0  0  0  0
    3.3162    0.0324   -3.0554 N   0  0  1  0  0  0  0  0  0  0  0  0
    2.6677    0.9212    0.5065 N   0  0  0  0  0  0  0  0  0  0  0  0
   -3.2350    2.7558   -1.0541 N   0  0  2  0  0  0  0  0  0  0  0  0
    1.7287   -1.8530   -0.0501 C   0  0  1  0  0  0  0  0  0  0  0  0
   -0.6000   -1.5894    0.9621 C   0  0  1  0  0  0  0  0  0  0  0  0
    0.2838   -1.3854   -0.2823 C   0  0  0  0  0  0  0  0  0  0  0  0
    1.7325   -3.3066    0.4687 C   0  0  2  0  0  0  0  0  0  0  0  0
    0.8144   -3.4412    1.6963 C   0  0  0  0  0  0  0  0  0  0  0  0
    2.5376   -1.6889   -1.3408 C   0  0  0  0  0  0  0  0  0  0  0  0
   -2.0184   -1.2176    0.6609 C   0  0  0  0  0  0  0  0  0  0  0  0
   -1.3589   -3.9286    0.6672 C   0  0  0  0  0  0  0  0  0  0  0  0
    2.5949   -0.2166   -1.7765 C   0  0  1  0  0  0  0  0  0  0  0  0
   -3.0631   -2.1028    0.5073 C   0  0  0  0  0  0  0  0  0  0  0  0
   -2.8637   -3.5674    0.6813 C   0  0  0  0  0  0  0  0  0  0  0  0
   -4.2277   -1.3445    0.2107 C   0  0  0  0  0  0  0  0  0  0  0  0
   -3.8424    0.0013    0.1959 C   0  0  0  0  0  0  0  0  0  0  0  0
    3.2296    0.6100   -0.6987 C   0  0  0  0  0  0  0  0  0  0  0  0
    3.1151   -3.7725    0.8216 C   0  0  0  0  0  0  0  0  0  0  0  0
    4.4846    1.1759   -0.7543 C   0  0  0  0  0  0  0  0  0  0  0  0
   -4.7436    1.0394   -0.0666 C   0  0  0  0  0  0  0  0  0  0  0  0
    4.7875   -0.0388   -2.9220 C   0  0  0  0  0  0  0  0  0  0  0  0
   -4.3146    2.4916   -0.0819 C   0  0  1  0  0  0  0  0  0  0  0  0
    5.3367    1.0466   -1.9669 C   0  0  0  0  0  0  0  0  0  0  0  0
   -3.7445    2.9568    1.2708 C   0  0  0  0  0  0  0  0  0  0  0  0
   -5.5761   -1.6656   -0.0438 C   0  0  0  0  0  0  0  0  0  0  0  0
    4.7044    1.8553    0.4745 C   0  0  0  0  0  0  0  0  0  0  0  0
    2.8435   -0.7987   -4.1576 C   0  0  0  0  0  0  0  0  0  0  0  0
   -2.3721    3.5312    0.9479 C   0  0  0  0  0  0  0  0  0  0  0  0
   -6.0744    0.6948   -0.3191 C   0  0  0  0  0  0  0  0  0  0  0  0
    3.5509    1.6782    1.2476 C   0  0  0  0  0  0  0  0  0  0  0  0
   -2.4687    3.8832   -0.5229 C   0  0  0  0  0  0  0  0  0  0  0  0
    3.7279   -4.8076    0.2373 C   0  0  0  0  0  0  0  0  0  0  0  0
   -6.4865   -0.6359   -0.3077 C   0  0  0  0  0  0  0  0  0  0  0  0
   -3.7263    3.0135   -2.4019 C   0  0  0  0  0  0  0  0  0  0  0  0
    5.7679    2.6101    1.0083 C   0  0  0  0  0  0  0  0  0  0  0  0
    3.4152    2.2179    2.5318 C   0  0  0  0  0  0  0  0  0  0  0  0
    5.6440    3.1546    2.2916 C   0  0  0  0  0  0  0  0  0  0  0  0
    4.4852    2.9597    3.0401 C   0  0  0  0  0  0  0  0  0  0  0  0
    2.1703   -1.2909    0.7719 H   0  0  0  0  0  0  0  0  0  0  0  0
   -0.2393   -0.9292    1.7626 H   0  0  0  0  0  0  0  0  0  0  0  0
    0.2398   -0.3214   -0.5330 H   0  0  0  0  0  0  0  0  0  0  0  0
   -0.1423   -1.9162   -1.1448 H   0  0  0  0  0  0  0  0  0  0  0  0
    1.3365   -3.9533   -0.3269 H   0  0  0  0  0  0  0  0  0  0  0  0
    1.2312   -2.8609    2.5316 H   0  0  0  0  0  0  0  0  0  0  0  0
    0.8047   -4.4806    2.0509 H   0  0  0  0  0  0  0  0  0  0  0  0
    2.0796   -2.3081   -2.1212 H   0  0  0  0  0  0  0  0  0  0  0  0
    3.5553   -2.0689   -1.1943 H   0  0  0  0  0  0  0  0  0  0  0  0
   -1.2586   -4.9462    1.0643 H   0  0  0  0  0  0  0  0  0  0  0  0
   -1.0020   -3.9558   -0.3696 H   0  0  0  0  0  0  0  0  0  0  0  0
    1.5871    0.1722   -1.9524 H   0  0  0  0  0  0  0  0  0  0  0  0
   -3.3010   -3.8690    1.6413 H   0  0  0  0  0  0  0  0  0  0  0  0
   -3.3810   -4.1228   -0.1088 H   0  0  0  0  0  0  0  0  0  0  0  0
   -1.9283    0.8840    0.5026 H   0  0  0  0  0  0  0  0  0  0  0  0
    3.6476   -3.2299    1.5992 H   0  0  0  0  0  0  0  0  0  0  0  0
    5.0932   -1.0323   -2.5700 H   0  0  0  0  0  0  0  0  0  0  0  0
    5.2642    0.1093   -3.8992 H   0  0  0  0  0  0  0  0  0  0  0  0
   -5.1672    3.1475   -0.3014 H   0  0  0  0  0  0  0  0  0  0  0  0
    5.3528    2.0125   -2.4869 H   0  0  0  0  0  0  0  0  0  0  0  0
    6.3678    0.8021   -1.6886 H   0  0  0  0  0  0  0  0  0  0  0  0
    1.7273    0.7029    0.8030 H   0  0  0  0  0  0  0  0  0  0  0  0
   -3.6749    2.1779    2.0371 H   0  0  0  0  0  0  0  0  0  0  0  0
   -4.3815    3.7524    1.6780 H   0  0  0  0  0  0  0  0  0  0  0  0
   -5.9122   -2.6986   -0.0383 H   0  0  0  0  0  0  0  0  0  0  0  0
    3.1465   -1.8464   -4.0571 H   0  0  0  0  0  0  0  0  0  0  0  0
    3.2432   -0.4263   -5.1075 H   0  0  0  0  0  0  0  0  0  0  0  0
    1.7520   -0.7541   -4.2410 H   0  0  0  0  0  0  0  0  0  0  0  0
   -2.1458    4.4072    1.5641 H   0  0  0  0  0  0  0  0  0  0  0  0
   -1.5826    2.7944    1.1262 H   0  0  0  0  0  0  0  0  0  0  0  0
   -2.9989    4.8354   -0.6516 H   0  0  0  0  0  0  0  0  0  0  0  0
   -1.4793    3.9622   -0.9837 H   0  0  0  0  0  0  0  0  0  0  0  0
    4.7302   -5.0928    0.5376 H   0  0  0  0  0  0  0  0  0  0  0  0
    3.2477   -5.3846   -0.5451 H   0  0  0  0  0  0  0  0  0  0  0  0
   -7.5242   -0.8949   -0.5043 H   0  0  0  0  0  0  0  0  0  0  0  0
   -4.3926    3.8824   -2.4438 H   0  0  0  0  0  0  0  0  0  0  0  0
   -4.2692    2.1449   -2.7895 H   0  0  0  0  0  0  0  0  0  0  0  0
   -2.8878    3.1920   -3.0841 H   0  0  0  0  0  0  0  0  0  0  0  0
    6.6775    2.7711    0.4367 H   0  0  0  0  0  0  0  0  0  0  0  0
    2.5126    2.0689    3.1151 H   0  0  0  0  0  0  0  0  0  0  0  0
   -7.8638    1.2491   -0.7327 H   0  0  0  0  0  0  0  0  0  0  0  0
    6.4622    3.7364    2.7077 H   0  0  0  0  0  0  0  0  0  0  0  0
    4.4101    3.3920    4.0345 H   0  0  0  0  0  0  0  0  0  0  0  0
  1 32  1  0  0  0  0
  1 82  1  0  0  0  0
  2  8  1  0  0  0  0
  2 11  1  0  0  0  0
  2 14  1  0  0  0  0
  3 13  1  0  0  0  0
  3 19  1  0  0  0  0
  3 56  1  0  0  0  0
  4 15  1  0  0  0  0
  4 24  1  0  0  0  0
  4 30  1  0  0  0  0
  5 20  1  0  0  0  0
  5 33  1  0  0  0  0
  5 63  1  0  0  0  0
  6 25  1  0  0  0  0
  6 34  1  0  0  0  0
  6 37  1  0  0  0  0
  7  9  1  0  0  0  0
  7 10  1  0  0  0  0
  7 12  1  0  0  0  0
  7 42  1  0  0  0  0
  8  9  1  0  0  0  0
  8 13  1  0  0  0  0
  8 43  1  0  0  0  0
  9 44  1  0  0  0  0
  9 45  1  0  0  0  0
 10 11  1  0  0  0  0
 10 21  1  0  0  0  0
 10 46  1  0  0  0  0
 11 47  1  0  0  0  0
 11 48  1  0  0  0  0
 12 15  1  0  0  0  0
 12 49  1  0  0  0  0
 12 50  1  0  0  0  0
 13 16  2  0  0  0  0
 14 17  1  0  0  0  0
 14 51  1  0  0  0  0
 14 52  1  0  0  0  0
 15 20  1  0  0  0  0
 15 53  1  0  0  0  0
 16 17  1  0  0  0  0
 16 18  1  0  0  0  0
 17 54  1  0  0  0  0
 17 55  1  0  0  0  0
 18 19  2  0  0  0  0
 18 28  1  0  0  0  0
 19 23  1  0  0  0  0
 20 22  2  0  0  0  0
 21 35  2  0  0  0  0
 21 57  1  0  0  0  0
 22 26  1  0  0  0  0
 22 29  1  0  0  0  0
 23 25  1  0  0  0  0
 23 32  2  0  0  0  0
 24 26  1  0  0  0  0
 24 58  1  0  0  0  0
 24 59  1  0  0  0  0
 25 27  1  0  0  0  0
 25 60  1  0  0  0  0
 26 61  1  0  0  0  0
 26 62  1  0  0  0  0
 27 31  1  0  0  0  0
 27 64  1  0  0  0  0
 27 65  1  0  0  0  0
 28 36  2  0  0  0  0
 28 66  1  0  0  0  0
 29 33  1  0  0  0  0
 29 38  2  0  0  0  0
 30 67  1  0  0  0  0
 30 68  1  0  0  0  0
 30 69  1  0  0  0  0
 31 34  1  0  0  0  0
 31 70  1  0  0  0  0
 31 71  1  0  0  0  0
 32 36  1  0  0  0  0
 33 39  2  0  0  0  0
 34 72  1  0  0  0  0
 34 73  1  0  0  0  0
 35 74  1  0  0  0  0
 35 75  1  0  0  0  0
 36 76  1  0  0  0  0
 37 77  1  0  0  0  0
 37 78  1  0  0  0  0
 37 79  1  0  0  0  0
 38 40  1  0  0  0  0
 38 80  1  0  0  0  0
 39 41  1  0  0  0  0
 39 81  1  0  0  0  0
 40 41  2  0  0  0  0
 40 83  1  0  0  0  0
 41 84  1  0  0  0  0
M  END
> <PUBCHEM_COMPOUND_CID>
6712640

> <PUBCHEM_CONFORMER_RMSD>
1

> <PUBCHEM_CONFORMER_DIVERSEORDER>
3
1
7
5
8
10
6
2
9
4

> <PUBCHEM_MMFF94_PARTIAL_CHARGES>
46
1 -0.53
10 0.14
11 0.27
13 -0.33
14 0.27
15 0.45
16 -0.18
17 0.18
19 -0.15
2 -0.81
20 -0.33
21 -0.29
22 -0.18
23 -0.14
24 0.27
25 0.41
26 0.18
28 -0.15
3 0.03
30 0.27
32 0.08
33 -0.15
34 0.27
35 -0.3
36 -0.15
37 0.27
38 -0.15
39 -0.15
4 -0.81
40 -0.15
41 -0.15
5 0.03
56 0.27
57 0.15
6 -0.81
63 0.27
66 0.15
74 0.15
75 0.15
76 0.15
8 0.45
80 0.15
81 0.15
82 0.45
83 0.15
84 0.15

> <PUBCHEM_EFFECTIVE_ROTOR_COUNT>
7

> <PUBCHEM_PHARMACOPHORE_FEATURES>
17
1 1 donor
1 2 cation
1 3 cation
1 3 donor
1 35 hydrophobe
1 4 cation
1 5 cation
1 5 donor
1 6 cation
5 3 13 16 18 19 rings
5 5 20 22 29 33 rings
5 6 25 27 31 34 rings
6 18 19 23 28 32 36 rings
6 2 7 8 9 10 11 rings
6 2 8 13 14 16 17 rings
6 29 33 38 39 40 41 rings
6 4 15 20 22 24 26 rings

> <PUBCHEM_HEAVY_ATOM_COUNT>
41

> <PUBCHEM_ATOM_DEF_STEREO_COUNT>
5

> <PUBCHEM_ATOM_UDEF_STEREO_COUNT>
0

> <PUBCHEM_BOND_DEF_STEREO_COUNT>
0

> <PUBCHEM_BOND_UDEF_STEREO_COUNT>
0

> <PUBCHEM_ISOTOPIC_ATOM_COUNT>
0

> <PUBCHEM_COMPONENT_COUNT>
1

> <PUBCHEM_CACTVS_TAUTO_COUNT>
9

> <PUBCHEM_CONFORMER_ID>
00666D4000000003

> <PUBCHEM_MMFF94_ENERGY>
97.146

> <PUBCHEM_FEATURE_SELFOVERLAP>
86.68

> <PUBCHEM_SHAPE_FINGERPRINT>
10556698 54 18128542561353502629
10670039 82 18187942680516125852
10842077 115 17535728716775592365
11227688 84 16338684957908517668
11331351 85 17402612948635271362
11582403 64 17988073530440460390
12128747 34 18410572865003958286
12788726 201 16592831868699309322
13402501 40 18200589336194641321
13617811 41 18186523220322952589
13947947 63 18337095835476505036
14347329 18 18188790430268078188
14400156 266 18122920733469767230
14739800 52 18411974763092189522
15145343 53 18057584629762702040
15320294 125 17606085538260770544
15324884 4 17768275722640296926
15629462 23 16983247201283471268
16067690 210 17680704027907937928
19053607 189 18113617863511338421
19304671 126 17989492905103903641
19311894 1 16909781093636577680
20764821 26 18192432965750432489
21033648 29 18124596642228681138
21133410 221 17410750867894443000
21859007 373 18341894151881445576
22121540 332 18200881798584087484
23516275 100 18128528465118662177
354706 132 18195830499968206428
3918712 181 18261675960155718757
46194498 28 17418104216965916244
469060 322 17898320374758211897
508180 173 18048893891924605258
508706 21 18338243763848745637
5252454 2 18191888733343640657
6371009 1 18117832201750079011
6677587 24 17346020226101633492
86090 222 18342735260311680065
9961470 85 18263072237375859441

> <PUBCHEM_SHAPE_MULTIPOLES>
812.99
15.14
6.13
2.75
7.92
2.48
-2.12
-10.39
-1.06
-1.11
3.09
-5.38
-1.25
3.88

> <PUBCHEM_SHAPE_SELFOVERLAP>
1803.421

> <PUBCHEM_SHAPE_VOLUME>
432.5

> <PUBCHEM_COORDINATE_TYPE>
2
5
10

$$$$
