2,6-Dihydroxybenzoic acid, 3TMS derivative
  -OEChem-12152007103D

 53 53  0     0  0  0  0  0  0999 V2000
    3.6632   -1.1421   -0.1510 Si  0  0  0  0  0  0  0  0  0  0  0  0
   -4.0900   -0.1977   -0.1442 Si  0  0  0  0  0  0  0  0  0  0  0  0
    0.8026    3.1707   -0.2864 Si  0  0  0  0  0  0  0  0  0  0  0  0
    2.2089   -1.1484    0.6758 O   0  0  0  0  0  0  0  0  0  0  0  0
   -2.4462   -0.1048    0.1533 O   0  0  0  0  0  0  0  0  0  0  0  0
    0.4383    1.5358   -0.2864 O   0  0  0  0  0  0  0  0  0  0  0  0
    0.1100    1.1724    1.9688 O   0  0  0  0  0  0  0  0  0  0  0  0
   -0.1171   -0.6188    0.4158 C   0  0  0  0  0  0  0  0  0  0  0  0
    0.9323   -1.5156    0.3698 C   0  0  0  0  0  0  0  0  0  0  0  0
   -1.4111   -0.9902    0.1071 C   0  0  0  0  0  0  0  0  0  0  0  0
    3.5837   -0.0407   -1.6724 C   0  0  0  0  0  0  0  0  0  0  0  0
    4.1603   -2.8769   -0.6779 C   0  0  0  0  0  0  0  0  0  0  0  0
    5.0278   -0.4722    0.9676 C   0  0  0  0  0  0  0  0  0  0  0  0
   -4.9288   -1.4221    1.0099 C   0  0  0  0  0  0  0  0  0  0  0  0
   -4.4384   -0.6972   -1.9227 C   0  0  0  0  0  0  0  0  0  0  0  0
   -4.8843    1.4906    0.1407 C   0  0  0  0  0  0  0  0  0  0  0  0
    0.1541    0.7884    0.8098 C   0  0  0  0  0  0  0  0  0  0  0  0
    2.3355    3.5190    0.7449 C   0  0  0  0  0  0  0  0  0  0  0  0
   -0.6278    4.1794    0.4004 C   0  0  0  0  0  0  0  0  0  0  0  0
    1.1367    3.7517   -2.0462 C   0  0  0  0  0  0  0  0  0  0  0  0
    0.6777   -2.8363    0.0006 C   0  0  0  0  0  0  0  0  0  0  0  0
   -1.6658   -2.3109   -0.2619 C   0  0  0  0  0  0  0  0  0  0  0  0
   -0.6215   -3.2340   -0.3152 C   0  0  0  0  0  0  0  0  0  0  0  0
    3.3957    0.9976   -1.3875 H   0  0  0  0  0  0  0  0  0  0  0  0
    2.7811   -0.3654   -2.3410 H   0  0  0  0  0  0  0  0  0  0  0  0
    4.5275   -0.0781   -2.2242 H   0  0  0  0  0  0  0  0  0  0  0  0
    5.1664   -2.8713   -1.1082 H   0  0  0  0  0  0  0  0  0  0  0  0
    3.4727   -3.2677   -1.4333 H   0  0  0  0  0  0  0  0  0  0  0  0
    4.1587   -3.5562    0.1795 H   0  0  0  0  0  0  0  0  0  0  0  0
    4.7933    0.5481    1.2846 H   0  0  0  0  0  0  0  0  0  0  0  0
    5.9857   -0.4599    0.4394 H   0  0  0  0  0  0  0  0  0  0  0  0
    5.1311   -1.0969    1.8596 H   0  0  0  0  0  0  0  0  0  0  0  0
   -4.5830   -2.4436    0.8313 H   0  0  0  0  0  0  0  0  0  0  0  0
   -6.0129   -1.4020    0.8636 H   0  0  0  0  0  0  0  0  0  0  0  0
   -4.7203   -1.1671    2.0531 H   0  0  0  0  0  0  0  0  0  0  0  0
   -3.9394   -0.0132   -2.6156 H   0  0  0  0  0  0  0  0  0  0  0  0
   -4.0878   -1.7114   -2.1309 H   0  0  0  0  0  0  0  0  0  0  0  0
   -5.5133   -0.6634   -2.1242 H   0  0  0  0  0  0  0  0  0  0  0  0
   -4.4420    2.2371   -0.5255 H   0  0  0  0  0  0  0  0  0  0  0  0
   -5.9601    1.4466   -0.0526 H   0  0  0  0  0  0  0  0  0  0  0  0
   -4.7302    1.8149    1.1740 H   0  0  0  0  0  0  0  0  0  0  0  0
    3.1918    2.9549    0.3642 H   0  0  0  0  0  0  0  0  0  0  0  0
    2.5850    4.5837    0.7153 H   0  0  0  0  0  0  0  0  0  0  0  0
    2.1736    3.2340    1.7885 H   0  0  0  0  0  0  0  0  0  0  0  0
   -0.8274    3.9097    1.4415 H   0  0  0  0  0  0  0  0  0  0  0  0
   -0.3991    5.2484    0.3608 H   0  0  0  0  0  0  0  0  0  0  0  0
   -1.5370    3.9998   -0.1809 H   0  0  0  0  0  0  0  0  0  0  0  0
    1.3768    4.8188   -2.0605 H   0  0  0  0  0  0  0  0  0  0  0  0
    1.9787    3.2022   -2.4773 H   0  0  0  0  0  0  0  0  0  0  0  0
    0.2583    3.5866   -2.6770 H   0  0  0  0  0  0  0  0  0  0  0  0
    1.4698   -3.5778   -0.0270 H   0  0  0  0  0  0  0  0  0  0  0  0
   -2.6542   -2.6748   -0.5159 H   0  0  0  0  0  0  0  0  0  0  0  0
   -0.8201   -4.2638   -0.5977 H   0  0  0  0  0  0  0  0  0  0  0  0
  1  4  1  0  0  0  0
  1 11  1  0  0  0  0
  1 12  1  0  0  0  0
  1 13  1  0  0  0  0
  2  5  1  0  0  0  0
  2 14  1  0  0  0  0
  2 15  1  0  0  0  0
  2 16  1  0  0  0  0
  3  6  1  0  0  0  0
  3 18  1  0  0  0  0
  3 19  1  0  0  0  0
  3 20  1  0  0  0  0
  4  9  1  0  0  0  0
  5 10  1  0  0  0  0
  6 17  1  0  0  0  0
  7 17  2  0  0  0  0
  8  9  2  0  0  0  0
  8 10  1  0  0  0  0
  8 17  1  0  0  0  0
  9 21  1  0  0  0  0
 10 22  2  0  0  0  0
 11 24  1  0  0  0  0
 11 25  1  0  0  0  0
 11 26  1  0  0  0  0
 12 27  1  0  0  0  0
 12 28  1  0  0  0  0
 12 29  1  0  0  0  0
 13 30  1  0  0  0  0
 13 31  1  0  0  0  0
 13 32  1  0  0  0  0
 14 33  1  0  0  0  0
 14 34  1  0  0  0  0
 14 35  1  0  0  0  0
 15 36  1  0  0  0  0
 15 37  1  0  0  0  0
 15 38  1  0  0  0  0
 16 39  1  0  0  0  0
 16 40  1  0  0  0  0
 16 41  1  0  0  0  0
 18 42  1  0  0  0  0
 18 43  1  0  0  0  0
 18 44  1  0  0  0  0
 19 45  1  0  0  0  0
 19 46  1  0  0  0  0
 19 47  1  0  0  0  0
 20 48  1  0  0  0  0
 20 49  1  0  0  0  0
 20 50  1  0  0  0  0
 21 23  2  0  0  0  0
 21 51  1  0  0  0  0
 22 23  1  0  0  0  0
 22 52  1  0  0  0  0
 23 53  1  0  0  0  0
M  END
> <PUBCHEM_COMPOUND_CID>
520869

> <PUBCHEM_CONFORMER_RMSD>
0.8

> <PUBCHEM_CONFORMER_DIVERSEORDER>
2
16
21
20
24
13
17
4
10
19
11
15
23
14
1
6
18
9
5
12
8
7
22
3

> <PUBCHEM_MMFF94_PARTIAL_CHARGES>
26
1 0.54
10 0.08
11 -0.08
12 -0.08
13 -0.08
14 -0.08
15 -0.08
16 -0.08
17 0.63
18 -0.08
19 -0.08
2 0.54
20 -0.08
21 -0.15
22 -0.15
23 -0.15
3 0.54
4 -0.38
5 -0.38
51 0.15
52 0.15
53 0.15
6 -0.45
7 -0.57
8 0.09
9 0.08

> <PUBCHEM_EFFECTIVE_ROTOR_COUNT>
7

> <PUBCHEM_PHARMACOPHORE_FEATURES>
2
1 7 acceptor
6 8 9 10 21 22 23 rings

> <PUBCHEM_HEAVY_ATOM_COUNT>
23

> <PUBCHEM_ATOM_DEF_STEREO_COUNT>
0

> <PUBCHEM_ATOM_UDEF_STEREO_COUNT>
0

> <PUBCHEM_BOND_DEF_STEREO_COUNT>
0

> <PUBCHEM_BOND_UDEF_STEREO_COUNT>
0

> <PUBCHEM_ISOTOPIC_ATOM_COUNT>
0

> <PUBCHEM_COMPONENT_COUNT>
1

> <PUBCHEM_CACTVS_TAUTO_COUNT>
1

> <PUBCHEM_CONFORMER_ID>
0007F2A500000002

> <PUBCHEM_MMFF94_ENERGY>
45.6203

> <PUBCHEM_FEATURE_SELFOVERLAP>
10.148

> <PUBCHEM_SHAPE_FINGERPRINT>
10871710 139 18120399591386332788
1100329 8 18338515356142794018
12553582 1 18339936982160248046
12788726 201 17828204294241533506
13140716 1 18266459991277379803
14790565 3 18339648849525740881
14955137 171 18338251396296047363
15210252 30 18189054213689038301
15775530 1 17536893421442759922
1601671 61 18338800005289941547
1813 80 18200326441182636103
18769570 83 18261105232136940280
18785283 64 18189908697627405099
19591789 44 18410294713783321553
20600515 1 18272081717194768906
20642791 178 18334870411062824341
20671657 1 18267305524635913497
20739085 24 18054535533384007723
21285901 2 18129946646355176926
21524375 3 17827348101623372921
23366157 5 17899127501791573962
23402539 116 18200588099270381462
23558518 356 17902505222644508298
23559900 14 18200876288029626658
23566358 2 17910400811353453006
350125 39 18338239396537236915
6443956 14 18267024032532620308
7164475 11 18049155567191569738
7495541 125 18040723614318185427
81228 2 18337963281573742650
9981440 41 17330263382387550905

> <PUBCHEM_SHAPE_MULTIPOLES>
504.49
8.95
5.18
1.42
4.63
4.89
0.42
-4.36
0.6
-2.54
0.7
-0.08
0.62
-0.03

> <PUBCHEM_SHAPE_SELFOVERLAP>
955.008

> <PUBCHEM_SHAPE_VOLUME>
315.2

> <PUBCHEM_COORDINATE_TYPE>
2
5
10

$$$$
