2-imino-1-(4-methoxy-6-dimethylamino-1,3,5-triazin-2-yl
  -OEChem-12152006313D

 31 32  0     0  0  0  0  0  0999 V2000
    4.8486   -0.6493   -0.3685 O   0  0  0  0  0  0  0  0  0  0  0  0
   -2.0085   -2.9494    0.0332 O   0  0  0  0  0  0  0  0  0  0  0  0
    1.5101    0.1379    0.1388 N   0  0  0  0  0  0  0  0  0  0  0  0
   -2.9622    1.6077   -0.1047 N   0  0  0  0  0  0  0  0  0  0  0  0
    3.4913    1.2109   -0.0324 N   0  0  0  0  0  0  0  0  0  0  0  0
   -0.7297    0.9000    0.0161 N   0  0  0  0  0  0  0  0  0  0  0  0
   -0.2477   -1.4496    0.0864 N   0  0  0  0  0  0  0  0  0  0  0  0
    1.5623    2.5211    0.3876 N   0  0  0  0  0  0  0  0  0  0  0  0
   -2.5221   -0.6946   -0.0373 N   0  0  0  0  0  0  0  0  0  0  0  0
    2.4742   -0.9478    0.0162 C   0  0  0  0  0  0  0  0  0  0  0  0
    0.1379   -0.1454    0.0786 C   0  0  0  0  0  0  0  0  0  0  0  0
    2.1933    1.3358    0.1476 C   0  0  0  0  0  0  0  0  0  0  0  0
    3.7536   -0.1438   -0.1597 C   0  0  0  0  0  0  0  0  0  0  0  0
   -2.0258    0.5532   -0.0386 C   0  0  0  0  0  0  0  0  0  0  0  0
   -1.5751   -1.6443    0.0272 C   0  0  0  0  0  0  0  0  0  0  0  0
   -2.5146    2.9854   -0.1114 C   0  0  0  0  0  0  0  0  0  0  0  0
   -4.3809    1.3239   -0.1806 C   0  0  0  0  0  0  0  0  0  0  0  0
   -1.0046   -3.9519    0.1014 C   0  0  0  0  0  0  0  0  0  0  0  0
    2.3075   -1.5570   -0.8772 H   0  0  0  0  0  0  0  0  0  0  0  0
    2.5306   -1.5509    0.9264 H   0  0  0  0  0  0  0  0  0  0  0  0
   -1.8677    3.1796   -0.9740 H   0  0  0  0  0  0  0  0  0  0  0  0
   -3.3515    3.6895   -0.1701 H   0  0  0  0  0  0  0  0  0  0  0  0
   -1.9608    3.2177    0.8049 H   0  0  0  0  0  0  0  0  0  0  0  0
   -4.9817    2.2388   -0.2195 H   0  0  0  0  0  0  0  0  0  0  0  0
   -4.6130    0.7456   -1.0817 H   0  0  0  0  0  0  0  0  0  0  0  0
   -4.7114    0.7581    0.6975 H   0  0  0  0  0  0  0  0  0  0  0  0
    0.5620    2.5723    0.5443 H   0  0  0  0  0  0  0  0  0  0  0  0
    2.0788    3.3936    0.4137 H   0  0  0  0  0  0  0  0  0  0  0  0
   -0.4299   -3.8713    1.0303 H   0  0  0  0  0  0  0  0  0  0  0  0
   -0.3436   -3.9077   -0.7707 H   0  0  0  0  0  0  0  0  0  0  0  0
   -1.5010   -4.9269    0.0974 H   0  0  0  0  0  0  0  0  0  0  0  0
  1 13  2  0  0  0  0
  2 15  1  0  0  0  0
  2 18  1  0  0  0  0
  3 10  1  0  0  0  0
  3 11  1  0  0  0  0
  3 12  1  0  0  0  0
  4 14  1  0  0  0  0
  4 16  1  0  0  0  0
  4 17  1  0  0  0  0
  5 12  2  0  0  0  0
  5 13  1  0  0  0  0
  6 11  2  0  0  0  0
  6 14  1  0  0  0  0
  7 11  1  0  0  0  0
  7 15  2  0  0  0  0
  8 12  1  0  0  0  0
  8 27  1  0  0  0  0
  8 28  1  0  0  0  0
  9 14  2  0  0  0  0
  9 15  1  0  0  0  0
 10 13  1  0  0  0  0
 10 19  1  0  0  0  0
 10 20  1  0  0  0  0
 16 21  1  0  0  0  0
 16 22  1  0  0  0  0
 16 23  1  0  0  0  0
 17 24  1  0  0  0  0
 17 25  1  0  0  0  0
 17 26  1  0  0  0  0
 18 29  1  0  0  0  0
 18 30  1  0  0  0  0
 18 31  1  0  0  0  0
M  END
> <PUBCHEM_COMPOUND_CID>
619645

> <PUBCHEM_CONFORMER_RMSD>
0.6

> <PUBCHEM_CONFORMER_DIVERSEORDER>
1
23
8
5
21
4
22
15
3
17
18
10
13
16
7
2
20
19
9
14
11
6
12

> <PUBCHEM_MMFF94_PARTIAL_CHARGES>
20
1 -0.57
10 0.43
11 0.72
12 0.55
13 0.72
14 0.72
15 0.7
16 0.37
17 0.37
18 0.28
2 -0.36
27 0.4
28 0.4
3 -0.52
4 -0.84
5 -0.66
6 -0.62
7 -0.62
8 -0.85
9 -0.62

> <PUBCHEM_EFFECTIVE_ROTOR_COUNT>
3.4

> <PUBCHEM_PHARMACOPHORE_FEATURES>
7
1 1 acceptor
1 5 donor
1 8 donor
4 3 6 7 11 cation
4 4 6 9 14 cation
5 3 5 10 12 13 rings
6 6 7 9 11 14 15 rings

> <PUBCHEM_HEAVY_ATOM_COUNT>
18

> <PUBCHEM_ATOM_DEF_STEREO_COUNT>
0

> <PUBCHEM_ATOM_UDEF_STEREO_COUNT>
0

> <PUBCHEM_BOND_DEF_STEREO_COUNT>
0

> <PUBCHEM_BOND_UDEF_STEREO_COUNT>
0

> <PUBCHEM_ISOTOPIC_ATOM_COUNT>
0

> <PUBCHEM_COMPONENT_COUNT>
1

> <PUBCHEM_CACTVS_TAUTO_COUNT>
3

> <PUBCHEM_CONFORMER_ID>
0009747D00000001

> <PUBCHEM_MMFF94_ENERGY>
69.244

> <PUBCHEM_FEATURE_SELFOVERLAP>
35.598

> <PUBCHEM_SHAPE_FINGERPRINT>
10608611 8 18341046432142094728
10967382 1 18266740186152973033
11578080 2 16771811406702796211
12173636 292 18410005512165798509
12500047 106 18410008827885552614
12553582 1 17545044161279580167
12592029 89 18193278499029864987
13380535 76 18342457002264856631
138480 1 17257370739618037963
14115302 16 18336557053314926412
14178342 30 18264750203894419330
14965852 173 18339361971690590142
15042514 8 18336271253380215907
15099037 51 18339362959538297652
15375462 6 17907860961289600790
15442244 35 18409445891049135240
16945 1 18338510940810652178
17804303 29 18411143553865915948
17859628 97 18190176789544836514
19591789 44 18193839236705687831
20510252 161 18342177786778391545
20524608 308 18410856585467992403
20645477 56 18410572902988913512
21501502 16 18264490757588678516
21524375 3 18188491268283369161
21665056 4 18409164407118941351
221490 88 18194690499909628730
23402539 116 18342449340512634237
23557571 272 18199197367521847532
23558518 356 18044655536454662424
23559900 14 18343301445376898080
25 1 18266455399951870445
2748010 2 17908978056376336441
298252 57 18335421205815264611
3071541 12 17618505376847498423
3084891 72 18197213651050514952
3091708 16 9198595079642460587
335352 9 18338798918795136668
352729 6 18410575080869472939
474229 33 18408888426143575291
5104073 3 18411417354052476656
532947 4 17981328889270320302
54173680 148 18338517567992649595
6138700 20 17836087771597462094
69090 78 18411696573970902437
7364860 26 17762054346578987519
74978 22 18410571816477985240
7832392 63 18409726279288473624
81228 2 18045494476822411707
8809292 202 18412266155274655514
93112 12 18411136956870002268
9709674 26 18343023332574012742

> <PUBCHEM_SHAPE_MULTIPOLES>
323.83
7.09
3.68
0.59
3.62
2.85
0
-2.99
0.77
-2.82
-0.18
0.03
-0.02
0.28

> <PUBCHEM_SHAPE_SELFOVERLAP>
680.118

> <PUBCHEM_SHAPE_VOLUME>
180.5

> <PUBCHEM_COORDINATE_TYPE>
2
5
10

$$$$
