Sapanisertib
  -OEChem-01262104423D

 38 41  0     0  0  0  0  0  0999 V2000
   -4.7550   -0.1768   -0.7102 O   0  0  0  0  0  0  0  0  0  0  0  0
    2.6684   -1.0380    0.0739 N   0  0  0  0  0  0  0  0  0  0  0  0
    1.3854   -1.4022   -0.1073 N   0  0  0  0  0  0  0  0  0  0  0  0
    4.0088    0.9648    0.3076 N   0  0  0  0  0  0  0  0  0  0  0  0
    2.6446    2.9829    0.1807 N   0  0  0  0  0  0  0  0  0  0  0  0
    0.2797    2.9235   -0.1361 N   0  0  0  0  0  0  0  0  0  0  0  0
   -3.9783   -0.2388    1.4182 N   0  0  0  0  0  0  0  0  0  0  0  0
   -6.3386   -0.2075    0.9539 N   0  0  0  0  0  0  0  0  0  0  0  0
    3.6889   -2.0540    0.1784 C   0  0  0  0  0  0  0  0  0  0  0  0
    1.5923    0.8720   -0.0175 C   0  0  0  0  0  0  0  0  0  0  0  0
    2.8485    0.3119    0.1349 C   0  0  0  0  0  0  0  0  0  0  0  0
    0.7351   -0.2347   -0.1622 C   0  0  0  0  0  0  0  0  0  0  0  0
   -0.6891   -0.2186   -0.3558 C   0  0  0  0  0  0  0  0  0  0  0  0
    3.7895   -2.8849   -1.1032 C   0  0  0  0  0  0  0  0  0  0  0  0
    3.4644   -2.9545    1.3956 C   0  0  0  0  0  0  0  0  0  0  0  0
    1.5115    2.2604    0.0096 C   0  0  0  0  0  0  0  0  0  0  0  0
   -1.5340   -0.2412    0.7632 C   0  0  0  0  0  0  0  0  0  0  0  0
   -1.2070   -0.1804   -1.6563 C   0  0  0  0  0  0  0  0  0  0  0  0
   -2.9188   -0.2244    0.5437 C   0  0  0  0  0  0  0  0  0  0  0  0
   -3.3903   -0.1865   -0.7603 C   0  0  0  0  0  0  0  0  0  0  0  0
   -2.5857   -0.1633   -1.8927 C   0  0  0  0  0  0  0  0  0  0  0  0
    3.8062    2.3001    0.3172 C   0  0  0  0  0  0  0  0  0  0  0  0
   -5.0264   -0.2096    0.6246 C   0  0  0  0  0  0  0  0  0  0  0  0
    4.6480   -1.5407    0.3175 H   0  0  0  0  0  0  0  0  0  0  0  0
    2.8746   -3.4590   -1.2871 H   0  0  0  0  0  0  0  0  0  0  0  0
    4.6232   -3.5922   -1.0406 H   0  0  0  0  0  0  0  0  0  0  0  0
    3.9583   -2.2405   -1.9731 H   0  0  0  0  0  0  0  0  0  0  0  0
    3.4012   -2.3600    2.3138 H   0  0  0  0  0  0  0  0  0  0  0  0
    4.2911   -3.6638    1.5092 H   0  0  0  0  0  0  0  0  0  0  0  0
    2.5366   -3.5306    1.3079 H   0  0  0  0  0  0  0  0  0  0  0  0
   -1.1380   -0.2703    1.7740 H   0  0  0  0  0  0  0  0  0  0  0  0
   -0.5361   -0.1627   -2.5138 H   0  0  0  0  0  0  0  0  0  0  0  0
   -2.9963   -0.1335   -2.8942 H   0  0  0  0  0  0  0  0  0  0  0  0
    4.6936    2.9091    0.4524 H   0  0  0  0  0  0  0  0  0  0  0  0
   -0.5809    2.4121   -0.2650 H   0  0  0  0  0  0  0  0  0  0  0  0
    0.2656    3.9342   -0.1102 H   0  0  0  0  0  0  0  0  0  0  0  0
   -7.0676   -0.1831    0.2485 H   0  0  0  0  0  0  0  0  0  0  0  0
   -6.6484   -0.2302    1.9199 H   0  0  0  0  0  0  0  0  0  0  0  0
  1 20  1  0  0  0  0
  1 23  1  0  0  0  0
  2  3  1  0  0  0  0
  2  9  1  0  0  0  0
  2 11  1  0  0  0  0
  3 12  2  0  0  0  0
  4 11  2  0  0  0  0
  4 22  1  0  0  0  0
  5 16  1  0  0  0  0
  5 22  2  0  0  0  0
  6 16  1  0  0  0  0
  6 35  1  0  0  0  0
  6 36  1  0  0  0  0
  7 19  1  0  0  0  0
  7 23  2  0  0  0  0
  8 23  1  0  0  0  0
  8 37  1  0  0  0  0
  8 38  1  0  0  0  0
  9 14  1  0  0  0  0
  9 15  1  0  0  0  0
  9 24  1  0  0  0  0
 10 11  1  0  0  0  0
 10 12  1  0  0  0  0
 10 16  2  0  0  0  0
 12 13  1  0  0  0  0
 13 17  2  0  0  0  0
 13 18  1  0  0  0  0
 14 25  1  0  0  0  0
 14 26  1  0  0  0  0
 14 27  1  0  0  0  0
 15 28  1  0  0  0  0
 15 29  1  0  0  0  0
 15 30  1  0  0  0  0
 17 19  1  0  0  0  0
 17 31  1  0  0  0  0
 18 21  2  0  0  0  0
 18 32  1  0  0  0  0
 19 20  2  0  0  0  0
 20 21  1  0  0  0  0
 21 33  1  0  0  0  0
 22 34  1  0  0  0  0
M  END
> <PUBCHEM_COMPOUND_CID>
45375953

> <PUBCHEM_CONFORMER_RMSD>
0.6

> <PUBCHEM_CONFORMER_DIVERSEORDER>
1
5
4
3
6
2

> <PUBCHEM_MMFF94_PARTIAL_CHARGES>
28
1 -0.28
11 0.11
12 0.23
13 0.05
16 0.41
17 -0.15
18 -0.15
19 0.23
2 0.31
20 0.14
21 -0.15
22 0.47
23 0.56
3 -0.71
31 0.15
32 0.15
33 0.15
34 0.15
35 0.4
36 0.4
37 0.4
38 0.4
4 -0.57
5 -0.62
6 -0.9
7 -0.57
8 -0.88
9 0.26

> <PUBCHEM_EFFECTIVE_ROTOR_COUNT>
2

> <PUBCHEM_PHARMACOPHORE_FEATURES>
12
1 3 acceptor
1 6 cation
1 6 donor
1 8 donor
3 2 4 11 cation
3 4 5 22 cation
3 7 8 23 cation
3 9 14 15 hydrophobe
5 1 7 19 20 23 rings
5 2 3 10 11 12 rings
6 13 17 18 19 20 21 rings
6 4 5 10 11 16 22 rings

> <PUBCHEM_HEAVY_ATOM_COUNT>
23

> <PUBCHEM_ATOM_DEF_STEREO_COUNT>
0

> <PUBCHEM_ATOM_UDEF_STEREO_COUNT>
0

> <PUBCHEM_BOND_DEF_STEREO_COUNT>
0

> <PUBCHEM_BOND_UDEF_STEREO_COUNT>
0

> <PUBCHEM_ISOTOPIC_ATOM_COUNT>
0

> <PUBCHEM_COMPONENT_COUNT>
1

> <PUBCHEM_CACTVS_TAUTO_COUNT>
10

> <PUBCHEM_CONFORMER_ID>
02B461D100000001

> <PUBCHEM_MMFF94_ENERGY>
47.6755

> <PUBCHEM_FEATURE_SELFOVERLAP>
61.294

> <PUBCHEM_SHAPE_FINGERPRINT>
10369192 42 17751365203972336412
10411042 1 18195248815635912366
11370993 144 18333454231754186169
11552529 35 18126287686786318715
12107183 9 17982742878845867977
12236239 1 17704072931900781613
12403259 415 17894346662299306567
12422481 6 17914351091051234801
12553582 1 18268985389504254966
12616971 3 18060418002560477807
12644460 14 18411697703621232370
12730499 353 18261400000095538730
13009979 54 17702675324084096306
13140716 1 18122333843030371528
13533116 47 18408609162763909371
13583140 156 18197783404611921867
13785724 45 17768826268490914063
13955234 65 18410570712861216810
14178342 30 17911217723155460514
14341114 176 18410302410807632993
14739800 52 16773501274649462808
14790565 3 18049164663975092028
15475509 84 18059296431163720409
15842332 3 17702366515692875479
17818456 19 17344638036700276793
17844677 252 18410579448988207129
1813 80 17986684670992037566
19784866 34 18054785354446504320
20369508 70 18261672580416973722
20511986 3 17632283627316800809
20645477 70 18410852153135667534
20739085 24 18342466902296316612
20832881 197 18115869590320739187
21033648 29 17895462705335748413
21041028 32 18340764819589254452
21065201 7 16443338737650001687
21344244 78 18131059403366142921
22182313 1 17749372763857617725
2255824 54 18342173380247772006
23175994 123 18264488395071868287
23557571 272 16950275200353972325
23559900 14 17168140105135524623
31174 14 18334574633622984838
312425 54 18187945992853880787
3286 77 18187930538733347679
3421961 26 18409165476813549274
345986 75 18130221549862736600
4409770 3 15680313672600229655
474 4 18197494241058734496
5104073 3 18410295770677599617
5309563 4 17978791207675063087
602551 16 16153988070491831801
6049 1 17822002077966424469
77492 1 17703784859870024773
7970288 3 18195529181963220582
8272917 22 18342462555567763102
8863177 126 18113911471939575763
9841814 1 18335414617921248186

> <PUBCHEM_SHAPE_MULTIPOLES>
432.59
10.44
2.92
1.27
11.88
0.69
0.29
-3.07
-2.49
-6.06
-0.28
0.91
-0.53
0.17

> <PUBCHEM_SHAPE_SELFOVERLAP>
971.88

> <PUBCHEM_SHAPE_VOLUME>
228.8

> <PUBCHEM_COORDINATE_TYPE>
2
5
10

$$$$
