MCSJ51_0020
  -OEChem-07172407472D

 47 50  0     0  0  0  0  0  0999 V2000
    7.2641    2.5670    0.0000 S   0  0  0  0  0  0  0  0  0  0  0  0
    6.3981   -0.9330    0.0000 O   0  0  0  0  0  0  0  0  0  0  0  0
    4.6660    2.0670    0.0000 O   0  0  0  0  0  0  0  0  0  0  0  0
    6.7641    3.4330    0.0000 O   0  0  0  0  0  0  0  0  0  0  0  0
    7.7641    3.4330    0.0000 O   0  0  0  0  0  0  0  0  0  0  0  0
    4.6660   -0.9330    0.0000 N   0  0  0  0  0  0  0  0  0  0  0  0
    7.2641    0.5670    0.0000 N   0  0  0  0  0  0  0  0  0  0  0  0
    6.3981    2.0670    0.0000 N   0  0  0  0  0  0  0  0  0  0  0  0
    4.6660   -1.9330    0.0000 C   0  0  0  0  0  0  0  0  0  0  0  0
    3.8000   -2.4330    0.0000 C   0  0  0  0  0  0  0  0  0  0  0  0
    3.8000   -0.4330    0.0000 C   0  0  0  0  0  0  0  0  0  0  0  0
    5.5321   -0.4330    0.0000 C   0  0  0  0  0  0  0  0  0  0  0  0
    5.5321    0.5670    0.0000 C   0  0  0  0  0  0  0  0  0  0  0  0
    3.8000    0.5670    0.0000 C   0  0  0  0  0  0  0  0  0  0  0  0
    4.6660    1.0670    0.0000 C   0  0  0  0  0  0  0  0  0  0  0  0
    6.3981    1.0670    0.0000 C   0  0  0  0  0  0  0  0  0  0  0  0
    3.8000   -3.4330    0.0000 C   0  0  0  0  0  0  0  0  0  0  0  0
    2.9340   -1.9330    0.0000 C   0  0  0  0  0  0  0  0  0  0  0  0
    2.9061   -0.9677    0.0000 C   0  0  0  0  0  0  0  0  0  0  0  0
    2.9061    1.1016    0.0000 C   0  0  0  0  0  0  0  0  0  0  0  0
    8.1301    1.0670    0.0000 C   0  0  0  0  0  0  0  0  0  0  0  0
    8.1301    2.0670    0.0000 C   0  0  0  0  0  0  0  0  0  0  0  0
    2.0000   -0.4538    0.0000 C   0  0  0  0  0  0  0  0  0  0  0  0
    2.0000    0.5878    0.0000 C   0  0  0  0  0  0  0  0  0  0  0  0
    9.0241    0.5323    0.0000 C   0  0  0  0  0  0  0  0  0  0  0  0
    9.0241    2.6016    0.0000 C   0  0  0  0  0  0  0  0  0  0  0  0
    9.9301    1.0462    0.0000 C   0  0  0  0  0  0  0  0  0  0  0  0
    9.9301    2.0878    0.0000 C   0  0  0  0  0  0  0  0  0  0  0  0
    4.8781   -2.5156    0.0000 H   0  0  0  0  0  0  0  0  0  0  0  0
    5.2766   -1.8254    0.0000 H   0  0  0  0  0  0  0  0  0  0  0  0
    3.8000   -1.8130    0.0000 H   0  0  0  0  0  0  0  0  0  0  0  0
    3.1800   -3.4330    0.0000 H   0  0  0  0  0  0  0  0  0  0  0  0
    3.8000   -4.0530    0.0000 H   0  0  0  0  0  0  0  0  0  0  0  0
    4.4200   -3.4330    0.0000 H   0  0  0  0  0  0  0  0  0  0  0  0
    3.2440   -1.3961    0.0000 H   0  0  0  0  0  0  0  0  0  0  0  0
    2.3970   -1.6230    0.0000 H   0  0  0  0  0  0  0  0  0  0  0  0
    2.6240   -2.4700    0.0000 H   0  0  0  0  0  0  0  0  0  0  0  0
    2.9132   -1.5876    0.0000 H   0  0  0  0  0  0  0  0  0  0  0  0
    7.2641   -0.0530    0.0000 H   0  0  0  0  0  0  0  0  0  0  0  0
    2.9132    1.7216    0.0000 H   0  0  0  0  0  0  0  0  0  0  0  0
    1.4643   -0.7659    0.0000 H   0  0  0  0  0  0  0  0  0  0  0  0
    1.4643    0.8999    0.0000 H   0  0  0  0  0  0  0  0  0  0  0  0
    6.3981   -1.5530    0.0000 H   0  0  0  0  0  0  0  0  0  0  0  0
    9.0169   -0.0876    0.0000 H   0  0  0  0  0  0  0  0  0  0  0  0
    9.0169    3.2216    0.0000 H   0  0  0  0  0  0  0  0  0  0  0  0
   10.4659    0.7341    0.0000 H   0  0  0  0  0  0  0  0  0  0  0  0
   10.4659    2.3999    0.0000 H   0  0  0  0  0  0  0  0  0  0  0  0
  1  4  2  0  0  0  0
  1  5  2  0  0  0  0
  1  8  1  0  0  0  0
  1 22  1  0  0  0  0
  2 12  1  0  0  0  0
  2 43  1  0  0  0  0
  3 15  2  0  0  0  0
  6  9  1  0  0  0  0
  6 11  1  0  0  0  0
  6 12  1  0  0  0  0
  7 16  1  0  0  0  0
  7 21  1  0  0  0  0
  7 39  1  0  0  0  0
  8 16  2  0  0  0  0
  9 10  1  0  0  0  0
  9 29  1  0  0  0  0
  9 30  1  0  0  0  0
 10 17  1  0  0  0  0
 10 18  1  0  0  0  0
 10 31  1  0  0  0  0
 11 14  1  0  0  0  0
 11 19  2  0  0  0  0
 12 13  2  0  0  0  0
 13 15  1  0  0  0  0
 13 16  1  0  0  0  0
 14 15  1  0  0  0  0
 14 20  2  0  0  0  0
 17 32  1  0  0  0  0
 17 33  1  0  0  0  0
 17 34  1  0  0  0  0
 18 35  1  0  0  0  0
 18 36  1  0  0  0  0
 18 37  1  0  0  0  0
 19 23  1  0  0  0  0
 19 38  1  0  0  0  0
 20 24  1  0  0  0  0
 20 40  1  0  0  0  0
 21 22  1  0  0  0  0
 21 25  2  0  0  0  0
 22 26  2  0  0  0  0
 23 24  2  0  0  0  0
 23 41  1  0  0  0  0
 24 42  1  0  0  0  0
 25 27  1  0  0  0  0
 25 44  1  0  0  0  0
 26 28  1  0  0  0  0
 26 45  1  0  0  0  0
 27 28  2  0  0  0  0
 27 46  1  0  0  0  0
 28 47  1  0  0  0  0
M  END
> <PUBCHEM_COMPOUND_CID>
1149147

> <PUBCHEM_COMPOUND_CANONICALIZED>
1

> <PUBCHEM_CACTVS_COMPLEXITY>
812

> <PUBCHEM_CACTVS_HBOND_ACCEPTOR>
6

> <PUBCHEM_CACTVS_HBOND_DONOR>
2

> <PUBCHEM_CACTVS_ROTATABLE_BOND>
3

> <PUBCHEM_CACTVS_SUBSKEYS>
AAADceB7OABAAAAAAAAAAAAAAAAAAAAAAAAwYIEAAAAAAACBQAAAHgQQSAAADQzB2AQzwYPAAgKoAqZyYHDCABAlIgAJiB0oZNgIIDrAnZGEIYhgkADIyccYiICOAAAAAAACAQAAAAAAAAQCAAAAAAAAAA==

> <PUBCHEM_IUPAC_OPENEYE_NAME>
3-(1,1-dioxo-4H-1lambda6,2,4-benzothiadiazin-3-yl)-2-hydroxy-1-isobutyl-quinolin-4-one

> <PUBCHEM_IUPAC_CAS_NAME>
3-(1,1-dioxo-4H-1lambda6,2,4-benzothiadiazin-3-yl)-2-hydroxy-1-(2-methylpropyl)-4-quinolinone

> <PUBCHEM_IUPAC_NAME_MARKUP>
3-(1,1-dioxo-4<I>H</I>-1&lambda;<SUP>6</SUP>,2,4-benzothiadiazin-3-yl)-2-hydroxy-1-(2-methylpropyl)quinolin-4-one

> <PUBCHEM_IUPAC_NAME>
3-(1,1-dioxo-4H-1lambda6,2,4-benzothiadiazin-3-yl)-2-hydroxy-1-(2-methylpropyl)quinolin-4-one

> <PUBCHEM_IUPAC_SYSTEMATIC_NAME>
3-[1,1-bis(oxidanylidene)-4H-1lambda6,2,4-benzothiadiazin-3-yl]-1-(2-methylpropyl)-2-oxidanyl-quinolin-4-one

> <PUBCHEM_IUPAC_TRADITIONAL_NAME>
3-(1,1-diketo-4H-1lambda6,2,4-benzothiadiazin-3-yl)-2-hydroxy-1-isobutyl-4-quinolone

> <PUBCHEM_IUPAC_INCHI>
InChI=1S/C20H19N3O4S/c1-12(2)11-23-15-9-5-3-7-13(15)18(24)17(20(23)25)19-21-14-8-4-6-10-16(14)28(26,27)22-19/h3-10,12,25H,11H2,1-2H3,(H,21,22)

> <PUBCHEM_IUPAC_INCHIKEY>
RCTDJMKMFAASAF-UHFFFAOYSA-N

> <PUBCHEM_XLOGP3_AA>
3.2

> <PUBCHEM_EXACT_MASS>
397.10962727

> <PUBCHEM_MOLECULAR_FORMULA>
C20H19N3O4S

> <PUBCHEM_MOLECULAR_WEIGHT>
397.4

> <PUBCHEM_OPENEYE_CAN_SMILES>
CC(C)CN1C2=CC=CC=C2C(=O)C(=C1O)C3=NS(=O)(=O)C4=CC=CC=C4N3

> <PUBCHEM_OPENEYE_ISO_SMILES>
CC(C)CN1C2=CC=CC=C2C(=O)C(=C1O)C3=NS(=O)(=O)C4=CC=CC=C4N3

> <PUBCHEM_CACTVS_TPSA>
107

> <PUBCHEM_MONOISOTOPIC_WEIGHT>
397.10962727

> <PUBCHEM_TOTAL_CHARGE>
0

> <PUBCHEM_HEAVY_ATOM_COUNT>
28

> <PUBCHEM_ATOM_DEF_STEREO_COUNT>
0

> <PUBCHEM_ATOM_UDEF_STEREO_COUNT>
0

> <PUBCHEM_BOND_DEF_STEREO_COUNT>
0

> <PUBCHEM_BOND_UDEF_STEREO_COUNT>
0

> <PUBCHEM_ISOTOPIC_ATOM_COUNT>
0

> <PUBCHEM_COMPONENT_COUNT>
1

> <PUBCHEM_CACTVS_TAUTO_COUNT>
-1

> <PUBCHEM_COORDINATE_TYPE>
1
5
255

> <PUBCHEM_BONDANNOTATIONS>
11  14  8
11  19  8
12  13  8
13  15  8
14  15  8
14  20  8
19  23  8
20  24  8
21  22  8
21  25  8
22  26  8
23  24  8
25  27  8
26  28  8
27  28  8
6  11  8
6  12  8

$$$$
