Suramin sodium
  -OEChem-07152409282D

126127  0     0  0  0  0  0  0999 V2000
   24.4516    4.3270    0.0000 S   0  0  0  0  0  0  0  0  0  0  0  0
    4.9642   -3.7521    0.0000 S   0  0  0  0  0  0  0  0  0  0  0  0
   28.3522    2.0785    0.0000 S   0  0  0  0  0  0  0  0  0  0  0  0
    7.2125    0.1485    0.0000 S   0  0  0  0  0  0  0  0  0  0  0  0
   27.3176    5.5590    0.0000 S   0  0  0  0  0  0  0  0  0  0  0  0
    3.7320   -0.8861    0.0000 S   0  0  0  0  0  0  0  0  0  0  0  0
   29.8621    1.2299    0.0000 Na  0  3  0  0  0  0  0  0  0  0  0  0
    8.0611    1.6585    0.0000 Na  0  3  0  0  0  0  0  0  0  0  0  0
    2.0000   -0.8861    0.0000 Na  0  3  0  0  0  0  0  0  0  0  0  0
   27.3176    7.2910    0.0000 Na  0  3  0  0  0  0  0  0  0  0  0  0
    3.4641   -4.6182    0.0000 Na  0  3  0  0  0  0  0  0  0  0  0  0
   24.4516    6.0590    0.0000 Na  0  3  0  0  0  0  0  0  0  0  0  0
   24.9516    5.1930    0.0000 O   0  5  0  0  0  0  0  0  0  0  0  0
    4.4642   -4.6182    0.0000 O   0  5  0  0  0  0  0  0  0  0  0  0
   23.5856    4.8270    0.0000 O   0  0  0  0  0  0  0  0  0  0  0  0
   23.9516    3.4609    0.0000 O   0  0  0  0  0  0  0  0  0  0  0  0
    4.0981   -3.2521    0.0000 O   0  0  0  0  0  0  0  0  0  0  0  0
    5.8301   -4.2521    0.0000 O   0  0  0  0  0  0  0  0  0  0  0  0
   29.3521    2.0901    0.0000 O   0  5  0  0  0  0  0  0  0  0  0  0
    7.2009    1.1485    0.0000 O   0  5  0  0  0  0  0  0  0  0  0  0
   28.3638    1.0786    0.0000 O   0  0  0  0  0  0  0  0  0  0  0  0
   28.3406    3.0784    0.0000 O   0  0  0  0  0  0  0  0  0  0  0  0
    8.2124    0.1601    0.0000 O   0  0  0  0  0  0  0  0  0  0  0  0
    6.2126    0.1370    0.0000 O   0  0  0  0  0  0  0  0  0  0  0  0
   27.8176    6.4250    0.0000 O   0  5  0  0  0  0  0  0  0  0  0  0
    2.8660   -0.3861    0.0000 O   0  5  0  0  0  0  0  0  0  0  0  0
   26.4516    6.0590    0.0000 O   0  0  0  0  0  0  0  0  0  0  0  0
   28.1836    5.0590    0.0000 O   0  0  0  0  0  0  0  0  0  0  0  0
    3.2320   -1.7521    0.0000 O   0  0  0  0  0  0  0  0  0  0  0  0
    4.2320   -0.0200    0.0000 O   0  0  0  0  0  0  0  0  0  0  0  0
   24.2630    0.3466    0.0000 O   0  0  0  0  0  0  0  0  0  0  0  0
    9.2239   -2.9438    0.0000 O   0  0  0  0  0  0  0  0  0  0  0  0
   19.2633    0.4044    0.0000 O   0  0  0  0  0  0  0  0  0  0  0  0
   11.7138   -3.8387    0.0000 O   0  0  0  0  0  0  0  0  0  0  0  0
   16.7134   -3.8965    0.0000 O   0  0  0  0  0  0  0  0  0  0  0  0
   24.2830    2.0785    0.0000 N   0  0  0  0  0  0  0  0  0  0  0  0
    7.7141   -3.7924    0.0000 N   0  0  0  0  0  0  0  0  0  0  0  0
   20.7532   -0.4789    0.0000 N   0  0  0  0  0  0  0  0  0  0  0  0
   11.6937   -5.5706    0.0000 N   0  0  0  0  0  0  0  0  0  0  0  0
   16.7334   -2.1646    0.0000 N   0  0  0  0  0  0  0  0  0  0  0  0
   15.2235   -3.0132    0.0000 N   0  0  0  0  0  0  0  0  0  0  0  0
   25.8176    2.9609    0.0000 C   0  0  0  0  0  0  0  0  0  0  0  0
    6.3301   -2.3860    0.0000 C   0  0  0  0  0  0  0  0  0  0  0  0
   26.8176    2.9609    0.0000 C   0  0  0  0  0  0  0  0  0  0  0  0
    6.3301   -1.3860    0.0000 C   0  0  0  0  0  0  0  0  0  0  0  0
   25.3176    3.8269    0.0000 C   0  0  0  0  0  0  0  0  0  0  0  0
    5.4641   -2.8860    0.0000 C   0  0  0  0  0  0  0  0  0  0  0  0
   25.2829    2.0670    0.0000 C   0  0  0  0  0  0  0  0  0  0  0  0
    7.2241   -2.9207    0.0000 C   0  0  0  0  0  0  0  0  0  0  0  0
   27.3523    2.0670    0.0000 C   0  0  0  0  0  0  0  0  0  0  0  0
    7.2241   -0.8514    0.0000 C   0  0  0  0  0  0  0  0  0  0  0  0
   27.3176    3.8269    0.0000 C   0  0  0  0  0  0  0  0  0  0  0  0
    5.4641   -0.8861    0.0000 C   0  0  0  0  0  0  0  0  0  0  0  0
   26.8176    4.6930    0.0000 C   0  0  0  0  0  0  0  0  0  0  0  0
    4.5981   -1.3860    0.0000 C   0  0  0  0  0  0  0  0  0  0  0  0
   25.8176    4.6930    0.0000 C   0  0  0  0  0  0  0  0  0  0  0  0
    4.5981   -2.3860    0.0000 C   0  0  0  0  0  0  0  0  0  0  0  0
   25.7968    1.1609    0.0000 C   0  0  0  0  0  0  0  0  0  0  0  0
    8.1301   -2.4069    0.0000 C   0  0  0  0  0  0  0  0  0  0  0  0
   26.8384    1.1609    0.0000 C   0  0  0  0  0  0  0  0  0  0  0  0
    8.1301   -1.3652    0.0000 C   0  0  0  0  0  0  0  0  0  0  0  0
   23.7730    1.2183    0.0000 C   0  0  0  0  0  0  0  0  0  0  0  0
    8.7140   -3.8040    0.0000 C   0  0  0  0  0  0  0  0  0  0  0  0
   22.7731    1.2299    0.0000 C   0  0  0  0  0  0  0  0  0  0  0  0
    9.2039   -4.6758    0.0000 C   0  0  0  0  0  0  0  0  0  0  0  0
   22.2631    0.3697    0.0000 C   0  0  0  0  0  0  0  0  0  0  0  0
   10.2038   -4.6873    0.0000 C   0  0  0  0  0  0  0  0  0  0  0  0
   21.2632    0.3813    0.0000 C   0  0  0  0  0  0  0  0  0  0  0  0
   10.6938   -5.5591    0.0000 C   0  0  0  0  0  0  0  0  0  0  0  0
   22.2832    2.1016    0.0000 C   0  0  0  0  0  0  0  0  0  0  0  0
    8.6940   -5.5359    0.0000 C   0  0  0  0  0  0  0  0  0  0  0  0
   20.7732    1.2530    0.0000 C   0  0  0  0  0  0  0  0  0  0  0  0
   10.1838   -6.4193    0.0000 C   0  0  0  0  0  0  0  0  0  0  0  0
   21.2832    2.1132    0.0000 C   0  0  0  0  0  0  0  0  0  0  0  0
    9.1840   -6.4077    0.0000 C   0  0  0  0  0  0  0  0  0  0  0  0
   19.7733    1.2646    0.0000 C   0  0  0  0  0  0  0  0  0  0  0  0
   10.6738   -7.2910    0.0000 C   0  0  0  0  0  0  0  0  0  0  0  0
   19.7533   -0.4674    0.0000 C   0  0  0  0  0  0  0  0  0  0  0  0
   12.2037   -4.7105    0.0000 C   0  0  0  0  0  0  0  0  0  0  0  0
   19.2433   -1.3275    0.0000 C   0  0  0  0  0  0  0  0  0  0  0  0
   13.2036   -4.7220    0.0000 C   0  0  0  0  0  0  0  0  0  0  0  0
   18.2434   -1.3160    0.0000 C   0  0  0  0  0  0  0  0  0  0  0  0
   13.7136   -3.8618    0.0000 C   0  0  0  0  0  0  0  0  0  0  0  0
   17.7334   -2.1762    0.0000 C   0  0  0  0  0  0  0  0  0  0  0  0
   14.7136   -3.8734    0.0000 C   0  0  0  0  0  0  0  0  0  0  0  0
   19.7332   -2.1993    0.0000 C   0  0  0  0  0  0  0  0  0  0  0  0
   13.6936   -5.5938    0.0000 C   0  0  0  0  0  0  0  0  0  0  0  0
   18.2233   -3.0479    0.0000 C   0  0  0  0  0  0  0  0  0  0  0  0
   15.2035   -4.7452    0.0000 C   0  0  0  0  0  0  0  0  0  0  0  0
   19.2233   -3.0595    0.0000 C   0  0  0  0  0  0  0  0  0  0  0  0
   14.6935   -5.6053    0.0000 C   0  0  0  0  0  0  0  0  0  0  0  0
   16.2235   -3.0248    0.0000 C   0  0  0  0  0  0  0  0  0  0  0  0
   27.9376    3.8269    0.0000 H   0  0  0  0  0  0  0  0  0  0  0  0
    5.4641   -0.2661    0.0000 H   0  0  0  0  0  0  0  0  0  0  0  0
   25.5076    5.2299    0.0000 H   0  0  0  0  0  0  0  0  0  0  0  0
    4.0611   -2.6960    0.0000 H   0  0  0  0  0  0  0  0  0  0  0  0
   25.4847    0.6251    0.0000 H   0  0  0  0  0  0  0  0  0  0  0  0
    8.6659   -2.7189    0.0000 H   0  0  0  0  0  0  0  0  0  0  0  0
   27.1505    0.6251    0.0000 H   0  0  0  0  0  0  0  0  0  0  0  0
    8.6659   -1.0532    0.0000 H   0  0  0  0  0  0  0  0  0  0  0  0
   23.7497    2.3947    0.0000 H   0  0  0  0  0  0  0  0  0  0  0  0
    7.3979   -4.3258    0.0000 H   0  0  0  0  0  0  0  0  0  0  0  0
   22.5669   -0.1708    0.0000 H   0  0  0  0  0  0  0  0  0  0  0  0
   10.5200   -4.1540    0.0000 H   0  0  0  0  0  0  0  0  0  0  0  0
   22.5993    2.6350    0.0000 H   0  0  0  0  0  0  0  0  0  0  0  0
    8.0740   -5.5288    0.0000 H   0  0  0  0  0  0  0  0  0  0  0  0
   20.9794    2.6537    0.0000 H   0  0  0  0  0  0  0  0  0  0  0  0
    8.8678   -6.9410    0.0000 H   0  0  0  0  0  0  0  0  0  0  0  0
   21.0570   -1.0194    0.0000 H   0  0  0  0  0  0  0  0  0  0  0  0
   11.9975   -6.1111    0.0000 H   0  0  0  0  0  0  0  0  0  0  0  0
   19.7805    1.8845    0.0000 H   0  0  0  0  0  0  0  0  0  0  0  0
   19.1533    1.2718    0.0000 H   0  0  0  0  0  0  0  0  0  0  0  0
   19.7661    0.6446    0.0000 H   0  0  0  0  0  0  0  0  0  0  0  0
   10.1333   -7.5948    0.0000 H   0  0  0  0  0  0  0  0  0  0  0  0
   10.9775   -7.8315    0.0000 H   0  0  0  0  0  0  0  0  0  0  0  0
   11.2142   -6.9872    0.0000 H   0  0  0  0  0  0  0  0  0  0  0  0
   17.9396   -0.7755    0.0000 H   0  0  0  0  0  0  0  0  0  0  0  0
   13.4098   -3.3214    0.0000 H   0  0  0  0  0  0  0  0  0  0  0  0
   20.3532   -2.2065    0.0000 H   0  0  0  0  0  0  0  0  0  0  0  0
   13.3774   -6.1271    0.0000 H   0  0  0  0  0  0  0  0  0  0  0  0
   17.9071   -3.5812    0.0000 H   0  0  0  0  0  0  0  0  0  0  0  0
   15.8235   -4.7523    0.0000 H   0  0  0  0  0  0  0  0  0  0  0  0
   19.5270   -3.6000    0.0000 H   0  0  0  0  0  0  0  0  0  0  0  0
   14.9973   -6.1458    0.0000 H   0  0  0  0  0  0  0  0  0  0  0  0
   16.4297   -1.6241    0.0000 H   0  0  0  0  0  0  0  0  0  0  0  0
   14.9198   -2.4727    0.0000 H   0  0  0  0  0  0  0  0  0  0  0  0
  1 13  1  0  0  0  0
  1 15  2  0  0  0  0
  1 16  2  0  0  0  0
  1 46  1  0  0  0  0
  2 14  1  0  0  0  0
  2 17  2  0  0  0  0
  2 18  2  0  0  0  0
  2 47  1  0  0  0  0
  3 19  1  0  0  0  0
  3 21  2  0  0  0  0
  3 22  2  0  0  0  0
  3 50  1  0  0  0  0
  4 20  1  0  0  0  0
  4 23  2  0  0  0  0
  4 24  2  0  0  0  0
  4 51  1  0  0  0  0
  5 25  1  0  0  0  0
  5 27  2  0  0  0  0
  5 28  2  0  0  0  0
  5 54  1  0  0  0  0
  6 26  1  0  0  0  0
  6 29  2  0  0  0  0
  6 30  2  0  0  0  0
  6 55  1  0  0  0  0
 31 62  2  0  0  0  0
 32 63  2  0  0  0  0
 33 78  2  0  0  0  0
 34 79  2  0  0  0  0
 35 92  2  0  0  0  0
 36 48  1  0  0  0  0
 36 62  1  0  0  0  0
 36101  1  0  0  0  0
 37 49  1  0  0  0  0
 37 63  1  0  0  0  0
 37102  1  0  0  0  0
 38 68  1  0  0  0  0
 38 78  1  0  0  0  0
 38109  1  0  0  0  0
 39 69  1  0  0  0  0
 39 79  1  0  0  0  0
 39110  1  0  0  0  0
 40 84  1  0  0  0  0
 40 92  1  0  0  0  0
 40125  1  0  0  0  0
 41 85  1  0  0  0  0
 41 92  1  0  0  0  0
 41126  1  0  0  0  0
 42 44  1  0  0  0  0
 42 46  1  0  0  0  0
 42 48  2  0  0  0  0
 43 45  1  0  0  0  0
 43 47  1  0  0  0  0
 43 49  2  0  0  0  0
 44 50  2  0  0  0  0
 44 52  1  0  0  0  0
 45 51  2  0  0  0  0
 45 53  1  0  0  0  0
 46 56  2  0  0  0  0
 47 57  2  0  0  0  0
 48 58  1  0  0  0  0
 49 59  1  0  0  0  0
 50 60  1  0  0  0  0
 51 61  1  0  0  0  0
 52 54  2  0  0  0  0
 52 93  1  0  0  0  0
 53 55  2  0  0  0  0
 53 94  1  0  0  0  0
 54 56  1  0  0  0  0
 55 57  1  0  0  0  0
 56 95  1  0  0  0  0
 57 96  1  0  0  0  0
 58 60  2  0  0  0  0
 58 97  1  0  0  0  0
 59 61  2  0  0  0  0
 59 98  1  0  0  0  0
 60 99  1  0  0  0  0
 61100  1  0  0  0  0
 62 64  1  0  0  0  0
 63 65  1  0  0  0  0
 64 66  2  0  0  0  0
 64 70  1  0  0  0  0
 65 67  2  0  0  0  0
 65 71  1  0  0  0  0
 66 68  1  0  0  0  0
 66103  1  0  0  0  0
 67 69  1  0  0  0  0
 67104  1  0  0  0  0
 68 72  2  0  0  0  0
 69 73  2  0  0  0  0
 70 74  2  0  0  0  0
 70105  1  0  0  0  0
 71 75  2  0  0  0  0
 71106  1  0  0  0  0
 72 74  1  0  0  0  0
 72 76  1  0  0  0  0
 73 75  1  0  0  0  0
 73 77  1  0  0  0  0
 74107  1  0  0  0  0
 75108  1  0  0  0  0
 76111  1  0  0  0  0
 76112  1  0  0  0  0
 76113  1  0  0  0  0
 77114  1  0  0  0  0
 77115  1  0  0  0  0
 77116  1  0  0  0  0
 78 80  1  0  0  0  0
 79 81  1  0  0  0  0
 80 82  2  0  0  0  0
 80 86  1  0  0  0  0
 81 83  2  0  0  0  0
 81 87  1  0  0  0  0
 82 84  1  0  0  0  0
 82117  1  0  0  0  0
 83 85  1  0  0  0  0
 83118  1  0  0  0  0
 84 88  2  0  0  0  0
 85 89  2  0  0  0  0
 86 90  2  0  0  0  0
 86119  1  0  0  0  0
 87 91  2  0  0  0  0
 87120  1  0  0  0  0
 88 90  1  0  0  0  0
 88121  1  0  0  0  0
 89 91  1  0  0  0  0
 89122  1  0  0  0  0
 90123  1  0  0  0  0
 91124  1  0  0  0  0
M  CHG  8   7   1   8   1   9   1  10   1  11   1  12   1  13  -1  14  -1
M  CHG  4  19  -1  20  -1  25  -1  26  -1
M  END
> <PUBCHEM_COMPOUND_CID>
8514

> <PUBCHEM_COMPOUND_CANONICALIZED>
1

> <PUBCHEM_CACTVS_COMPLEXITY>
2940

> <PUBCHEM_CACTVS_HBOND_ACCEPTOR>
23

> <PUBCHEM_CACTVS_HBOND_DONOR>
6

> <PUBCHEM_CACTVS_ROTATABLE_BOND>
10

> <PUBCHEM_CACTVS_SUBSKEYS>
AAADcfB/vjBwAAAAAAAAAAAAAAAAAAAAAAAwYMGDAAAAAADBVAAAHgQQAAAADAiB2AAzwcLAAAKIAiVSUHDCAEAlAgAIiBkAZMiIIDLAlZGEIQxolALIyacciICO0AQAwEAWAACgCAGAgCwAAAAAAAAAAA==

> <PUBCHEM_IUPAC_OPENEYE_NAME>
hexasodium;8-[[4-methyl-3-[[3-[[3-[[2-methyl-5-[(4,6,8-trisulfonato-1-naphthyl)carbamoyl]phenyl]carbamoyl]phenyl]carbamoylamino]benzoyl]amino]benzoyl]amino]naphthalene-1,3,5-trisulfonate

> <PUBCHEM_IUPAC_CAS_NAME>
hexasodium;8-[[[4-methyl-3-[[[3-[[[3-[[2-methyl-5-[oxo-[(4,6,8-trisulfonato-1-naphthalenyl)amino]methyl]anilino]-oxomethyl]anilino]-oxomethyl]amino]phenyl]-oxomethyl]amino]phenyl]-oxomethyl]amino]naphthalene-1,3,5-trisulfonate

> <PUBCHEM_IUPAC_NAME_MARKUP>
hexasodium;8-[[4-methyl-3-[[3-[[3-[[2-methyl-5-[(4,6,8-trisulfonatonaphthalen-1-yl)carbamoyl]phenyl]carbamoyl]phenyl]carbamoylamino]benzoyl]amino]benzoyl]amino]naphthalene-1,3,5-trisulfonate

> <PUBCHEM_IUPAC_NAME>
hexasodium;8-[[4-methyl-3-[[3-[[3-[[2-methyl-5-[(4,6,8-trisulfonatonaphthalen-1-yl)carbamoyl]phenyl]carbamoyl]phenyl]carbamoylamino]benzoyl]amino]benzoyl]amino]naphthalene-1,3,5-trisulfonate

> <PUBCHEM_IUPAC_SYSTEMATIC_NAME>
hexasodium;8-[[4-methyl-3-[[3-[[3-[[2-methyl-5-[(4,6,8-trisulfonatonaphthalen-1-yl)carbamoyl]phenyl]carbamoyl]phenyl]carbamoylamino]phenyl]carbonylamino]phenyl]carbonylamino]naphthalene-1,3,5-trisulfonate

> <PUBCHEM_IUPAC_TRADITIONAL_NAME>
hexasodium;8-[[4-methyl-3-[[3-[[3-[[2-methyl-5-[(4,6,8-trisulfonato-1-naphthyl)carbamoyl]phenyl]carbamoyl]phenyl]carbamoylamino]benzoyl]amino]benzoyl]amino]naphthalene-1,3,5-trisulfonate

> <PUBCHEM_IUPAC_INCHI>
InChI=1S/C51H40N6O23S6.6Na/c1-25-9-11-29(49(60)54-37-13-15-41(83(69,70)71)35-21-33(81(63,64)65)23-43(45(35)37)85(75,76)77)19-39(25)56-47(58)27-5-3-7-31(17-27)52-51(62)53-32-8-4-6-28(18-32)48(59)57-40-20-30(12-10-26(40)2)50(61)55-38-14-16-42(84(72,73)74)36-22-34(82(66,67)68)24-44(46(36)38)86(78,79)80;;;;;;/h3-24H,1-2H3,(H,54,60)(H,55,61)(H,56,58)(H,57,59)(H2,52,53,62)(H,63,64,65)(H,66,67,68)(H,69,70,71)(H,72,73,74)(H,75,76,77)(H,78,79,80);;;;;;/q;6*+1/p-6

> <PUBCHEM_IUPAC_INCHIKEY>
VAPNKLKDKUDFHK-UHFFFAOYSA-H

> <PUBCHEM_EXACT_MASS>
1427.9385741

> <PUBCHEM_MOLECULAR_FORMULA>
C51H34N6Na6O23S6

> <PUBCHEM_MOLECULAR_WEIGHT>
1429.2

> <PUBCHEM_OPENEYE_CAN_SMILES>
CC1=C(C=C(C=C1)C(=O)NC2=C3C(=CC(=CC3=C(C=C2)S(=O)(=O)[O-])S(=O)(=O)[O-])S(=O)(=O)[O-])NC(=O)C4=CC(=CC=C4)NC(=O)NC5=CC=CC(=C5)C(=O)NC6=C(C=CC(=C6)C(=O)NC7=C8C(=CC(=CC8=C(C=C7)S(=O)(=O)[O-])S(=O)(=O)[O-])S(=O)(=O)[O-])C.[Na+].[Na+].[Na+].[Na+].[Na+].[Na+]

> <PUBCHEM_OPENEYE_ISO_SMILES>
CC1=C(C=C(C=C1)C(=O)NC2=C3C(=CC(=CC3=C(C=C2)S(=O)(=O)[O-])S(=O)(=O)[O-])S(=O)(=O)[O-])NC(=O)C4=CC(=CC=C4)NC(=O)NC5=CC=CC(=C5)C(=O)NC6=C(C=CC(=C6)C(=O)NC7=C8C(=CC(=CC8=C(C=C7)S(=O)(=O)[O-])S(=O)(=O)[O-])S(=O)(=O)[O-])C.[Na+].[Na+].[Na+].[Na+].[Na+].[Na+]

> <PUBCHEM_CACTVS_TPSA>
551

> <PUBCHEM_MONOISOTOPIC_WEIGHT>
1427.9385741

> <PUBCHEM_TOTAL_CHARGE>
0

> <PUBCHEM_HEAVY_ATOM_COUNT>
92

> <PUBCHEM_ATOM_DEF_STEREO_COUNT>
0

> <PUBCHEM_ATOM_UDEF_STEREO_COUNT>
0

> <PUBCHEM_BOND_DEF_STEREO_COUNT>
0

> <PUBCHEM_BOND_UDEF_STEREO_COUNT>
0

> <PUBCHEM_ISOTOPIC_ATOM_COUNT>
0

> <PUBCHEM_COMPONENT_COUNT>
7

> <PUBCHEM_CACTVS_TAUTO_COUNT>
-1

> <PUBCHEM_COORDINATE_TYPE>
1
5
255

> <PUBCHEM_BONDANNOTATIONS>
42  44  8
42  46  8
42  48  8
43  45  8
43  47  8
43  49  8
44  50  8
44  52  8
45  51  8
45  53  8
46  56  8
47  57  8
48  58  8
49  59  8
50  60  8
51  61  8
52  54  8
53  55  8
54  56  8
55  57  8
58  60  8
59  61  8
64  66  8
64  70  8
65  67  8
65  71  8
66  68  8
67  69  8
68  72  8
69  73  8
70  74  8
71  75  8
72  74  8
73  75  8
80  82  8
80  86  8
81  83  8
81  87  8
82  84  8
83  85  8
84  88  8
85  89  8
86  90  8
87  91  8
88  90  8
89  91  8

$$$$
