SV_J19_0001
  -OEChem-07172407052D

 57 62  0     1  0  0  0  0  0999 V2000
    2.8641   -2.8122    0.0000 O   0  0  0  0  0  0  0  0  0  0  0  0
   10.6091   -1.6459    0.0000 O   0  0  0  0  0  0  0  0  0  0  0  0
    6.3782    0.2535    0.0000 N   0  0  0  0  0  0  0  0  0  0  0  0
    8.1783    0.2604    0.0000 N   0  0  0  0  0  0  0  0  0  0  0  0
    9.1234   -2.2868    0.0000 N   0  0  0  0  0  0  0  0  0  0  0  0
    9.9486   -0.8950    0.0000 N   0  0  0  0  0  0  0  0  0  0  0  0
    2.0000   -0.2606    0.0000 N   0  0  0  0  0  0  0  0  0  0  0  0
    7.2646    3.7812    0.0000 N   0  0  0  0  0  0  0  0  0  0  0  0
    5.5282   -2.2880    0.0000 C   0  0  1  0  0  0  0  0  0  0  0  0
    5.5282   -1.2880    0.0000 C   0  0  2  0  0  0  0  0  0  0  0  0
    4.6342   -2.8227    0.0000 C   0  0  2  0  0  0  0  0  0  0  0  0
    6.3942   -2.7880    0.0000 C   0  0  0  0  0  0  0  0  0  0  0  0
    6.3942   -0.7880    0.0000 C   0  0  0  0  0  0  0  0  0  0  0  0
    7.2602   -2.2880    0.0000 C   0  0  0  0  0  0  0  0  0  0  0  0
    4.6342   -0.7534    0.0000 C   0  0  0  0  0  0  0  0  0  0  0  0
    7.2602   -1.2880    0.0000 C   0  0  0  0  0  0  0  0  0  0  0  0
    5.5282   -0.2880    0.0000 C   0  0  0  0  0  0  0  0  0  0  0  0
    3.7282   -2.3089    0.0000 C   0  0  0  0  0  0  0  0  0  0  0  0
    4.6458   -3.8226    0.0000 C   0  0  0  0  0  0  0  0  0  0  0  0
    3.7282   -1.2672    0.0000 C   0  0  0  0  0  0  0  0  0  0  0  0
    8.1702   -0.7812    0.0000 C   0  0  0  0  0  0  0  0  0  0  0  0
    7.2762    0.7812    0.0000 C   0  0  0  0  0  0  0  0  0  0  0  0
    2.8641   -0.7639    0.0000 C   0  0  0  0  0  0  0  0  0  0  0  0
    9.0304   -1.2912    0.0000 C   0  0  0  0  0  0  0  0  0  0  0  0
    7.2723    1.7812    0.0000 C   0  0  0  0  0  0  0  0  0  0  0  0
    8.1364    2.2845    0.0000 C   0  0  0  0  0  0  0  0  0  0  0  0
    6.4044    2.2779    0.0000 C   0  0  0  0  0  0  0  0  0  0  0  0
   10.0991   -2.5060    0.0000 C   0  0  0  0  0  0  0  0  0  0  0  0
    8.1326    3.2845    0.0000 C   0  0  0  0  0  0  0  0  0  0  0  0
    9.0324    1.7533    0.0000 C   0  0  0  0  0  0  0  0  0  0  0  0
    6.4005    3.2779    0.0000 C   0  0  0  0  0  0  0  0  0  0  0  0
    9.0244    3.8226    0.0000 C   0  0  0  0  0  0  0  0  0  0  0  0
   10.4953   -3.4242    0.0000 C   0  0  0  0  0  0  0  0  0  0  0  0
    9.9365    2.2707    0.0000 C   0  0  0  0  0  0  0  0  0  0  0  0
    9.9325    3.3123    0.0000 C   0  0  0  0  0  0  0  0  0  0  0  0
    5.5347   -3.1380    0.0000 H   0  0  0  0  0  0  0  0  0  0  0  0
    4.1003   -3.1379    0.0000 H   0  0  0  0  0  0  0  0  0  0  0  0
    5.9957   -3.2630    0.0000 H   0  0  0  0  0  0  0  0  0  0  0  0
    6.7928   -3.2630    0.0000 H   0  0  0  0  0  0  0  0  0  0  0  0
    7.4723   -2.8706    0.0000 H   0  0  0  0  0  0  0  0  0  0  0  0
    7.8708   -2.1804    0.0000 H   0  0  0  0  0  0  0  0  0  0  0  0
    4.6414   -0.1334    0.0000 H   0  0  0  0  0  0  0  0  0  0  0  0
    6.1482   -0.2880    0.0000 H   0  0  0  0  0  0  0  0  0  0  0  0
    5.5282    0.3320    0.0000 H   0  0  0  0  0  0  0  0  0  0  0  0
    4.9082   -0.2880    0.0000 H   0  0  0  0  0  0  0  0  0  0  0  0
    4.0259   -3.8298    0.0000 H   0  0  0  0  0  0  0  0  0  0  0  0
    4.6530   -4.4426    0.0000 H   0  0  0  0  0  0  0  0  0  0  0  0
    5.2658   -3.8155    0.0000 H   0  0  0  0  0  0  0  0  0  0  0  0
    5.8687    1.9658    0.0000 H   0  0  0  0  0  0  0  0  0  0  0  0
    9.0276    1.1334    0.0000 H   0  0  0  0  0  0  0  0  0  0  0  0
    5.8624    3.5858    0.0000 H   0  0  0  0  0  0  0  0  0  0  0  0
    9.0149    4.4426    0.0000 H   0  0  0  0  0  0  0  0  0  0  0  0
    9.9260   -3.6698    0.0000 H   0  0  0  0  0  0  0  0  0  0  0  0
   10.7409   -3.9935    0.0000 H   0  0  0  0  0  0  0  0  0  0  0  0
   11.0646   -3.1786    0.0000 H   0  0  0  0  0  0  0  0  0  0  0  0
   10.4734    1.9607    0.0000 H   0  0  0  0  0  0  0  0  0  0  0  0
   10.4670    3.6264    0.0000 H   0  0  0  0  0  0  0  0  0  0  0  0
  1 18  2  0  0  0  0
  2  6  1  0  0  0  0
  2 28  1  0  0  0  0
  3 13  2  0  0  0  0
  3 22  1  0  0  0  0
  4 21  1  0  0  0  0
  4 22  2  0  0  0  0
  5 24  1  0  0  0  0
  5 28  2  0  0  0  0
  6 24  2  0  0  0  0
  7 23  3  0  0  0  0
  8 29  1  0  0  0  0
  8 31  2  0  0  0  0
  9 10  1  0  0  0  0
  9 11  1  0  0  0  0
  9 12  1  0  0  0  0
  9 36  1  1  0  0  0
 10 13  1  0  0  0  0
 10 15  1  0  0  0  0
 10 17  1  6  0  0  0
 11 18  1  0  0  0  0
 11 19  1  1  0  0  0
 11 37  1  0  0  0  0
 12 14  1  0  0  0  0
 12 38  1  0  0  0  0
 12 39  1  0  0  0  0
 13 16  1  0  0  0  0
 14 16  1  0  0  0  0
 14 40  1  0  0  0  0
 14 41  1  0  0  0  0
 15 20  2  0  0  0  0
 15 42  1  0  0  0  0
 16 21  2  0  0  0  0
 17 43  1  0  0  0  0
 17 44  1  0  0  0  0
 17 45  1  0  0  0  0
 18 20  1  0  0  0  0
 19 46  1  0  0  0  0
 19 47  1  0  0  0  0
 19 48  1  0  0  0  0
 20 23  1  0  0  0  0
 21 24  1  0  0  0  0
 22 25  1  0  0  0  0
 25 26  1  0  0  0  0
 25 27  2  0  0  0  0
 26 29  1  0  0  0  0
 26 30  2  0  0  0  0
 27 31  1  0  0  0  0
 27 49  1  0  0  0  0
 28 33  1  0  0  0  0
 29 32  2  0  0  0  0
 30 34  1  0  0  0  0
 30 50  1  0  0  0  0
 31 51  1  0  0  0  0
 32 35  1  0  0  0  0
 32 52  1  0  0  0  0
 33 53  1  0  0  0  0
 33 54  1  0  0  0  0
 33 55  1  0  0  0  0
 34 35  2  0  0  0  0
 34 56  1  0  0  0  0
 35 57  1  0  0  0  0
M  END
> <PUBCHEM_COMPOUND_CID>
135132079

> <PUBCHEM_COMPOUND_CANONICALIZED>
1

> <PUBCHEM_CACTVS_COMPLEXITY>
930

> <PUBCHEM_CACTVS_HBOND_ACCEPTOR>
8

> <PUBCHEM_CACTVS_HBOND_DONOR>
0

> <PUBCHEM_CACTVS_ROTATABLE_BOND>
2

> <PUBCHEM_CACTVS_SUBSKEYS>
AAADceB7sAAAAAAAAAAAAAAAAAAAAWAAAAA8eIECAAAAAACx/gAAHgAEAAAADwzBnwQ/0PYYEAC5B7d3dgCigCkxAqAp2CE4ZNiI6PLA2dGUJAhohQLIya8YicCfgAAAAAACAACAAASAACQAAAAAAAAAAA==

> <PUBCHEM_IUPAC_OPENEYE_NAME>
(6aR,7R,10aS)-7,10a-dimethyl-4-(5-methyl-1,2,4-oxadiazol-3-yl)-8-oxo-2-(4-quinolyl)-5,6,6a,7-tetrahydrobenzo[h]quinazoline-9-carbonitrile

> <PUBCHEM_IUPAC_CAS_NAME>
(6aR,7R,10aS)-7,10a-dimethyl-4-(5-methyl-1,2,4-oxadiazol-3-yl)-8-oxo-2-(4-quinolinyl)-5,6,6a,7-tetrahydrobenzo[h]quinazoline-9-carbonitrile

> <PUBCHEM_IUPAC_NAME_MARKUP>
(6<I>a</I><I>R</I>,7<I>R</I>,10<I>a</I><I>S</I>)-7,10<I>a</I>-dimethyl-4-(5-methyl-1,2,4-oxadiazol-3-yl)-8-oxo-2-quinolin-4-yl-5,6,6<I>a</I>,7-tetrahydrobenzo[h]quinazoline-9-carbonitrile

> <PUBCHEM_IUPAC_NAME>
(6aR,7R,10aS)-7,10a-dimethyl-4-(5-methyl-1,2,4-oxadiazol-3-yl)-8-oxo-2-quinolin-4-yl-5,6,6a,7-tetrahydrobenzo[h]quinazoline-9-carbonitrile

> <PUBCHEM_IUPAC_SYSTEMATIC_NAME>
(6aR,7R,10aS)-7,10a-dimethyl-4-(5-methyl-1,2,4-oxadiazol-3-yl)-8-oxidanylidene-2-quinolin-4-yl-5,6,6a,7-tetrahydrobenzo[h]quinazoline-9-carbonitrile

> <PUBCHEM_IUPAC_TRADITIONAL_NAME>
(6aR,7R,10aS)-8-keto-7,10a-dimethyl-4-(5-methyl-1,2,4-oxadiazol-3-yl)-2-(4-quinolyl)-5,6,6a,7-tetrahydrobenzo[h]quinazoline-9-carbonitrile

> <PUBCHEM_IUPAC_INCHI>
InChI=1S/C27H22N6O2/c1-14-20-9-8-19-22(26-30-15(2)35-33-26)31-25(18-10-11-29-21-7-5-4-6-17(18)21)32-24(19)27(20,3)12-16(13-28)23(14)34/h4-7,10-12,14,20H,8-9H2,1-3H3/t14-,20-,27-/m1/s1

> <PUBCHEM_IUPAC_INCHIKEY>
JXTBFKYJSUCCIB-FJXHSAOVSA-N

> <PUBCHEM_XLOGP3_AA>
4.4

> <PUBCHEM_EXACT_MASS>
462.18042397

> <PUBCHEM_MOLECULAR_FORMULA>
C27H22N6O2

> <PUBCHEM_MOLECULAR_WEIGHT>
462.5

> <PUBCHEM_OPENEYE_CAN_SMILES>
CC1C2CCC3=C(N=C(N=C3C2(C=C(C1=O)C#N)C)C4=CC=NC5=CC=CC=C45)C6=NOC(=N6)C

> <PUBCHEM_OPENEYE_ISO_SMILES>
C[C@@H]1[C@H]2CCC3=C(N=C(N=C3[C@@]2(C=C(C1=O)C#N)C)C4=CC=NC5=CC=CC=C45)C6=NOC(=N6)C

> <PUBCHEM_CACTVS_TPSA>
118

> <PUBCHEM_MONOISOTOPIC_WEIGHT>
462.18042397

> <PUBCHEM_TOTAL_CHARGE>
0

> <PUBCHEM_HEAVY_ATOM_COUNT>
35

> <PUBCHEM_ATOM_DEF_STEREO_COUNT>
3

> <PUBCHEM_ATOM_UDEF_STEREO_COUNT>
0

> <PUBCHEM_BOND_DEF_STEREO_COUNT>
0

> <PUBCHEM_BOND_UDEF_STEREO_COUNT>
0

> <PUBCHEM_ISOTOPIC_ATOM_COUNT>
0

> <PUBCHEM_COMPONENT_COUNT>
1

> <PUBCHEM_CACTVS_TAUTO_COUNT>
-1

> <PUBCHEM_COORDINATE_TYPE>
1
5
255

> <PUBCHEM_BONDANNOTATIONS>
10  17  6
11  19  5
13  16  8
16  21  8
2  28  8
2  6  8
25  26  8
25  27  8
26  29  8
26  30  8
27  31  8
29  32  8
3  13  8
3  22  8
30  34  8
32  35  8
34  35  8
4  21  8
4  22  8
5  24  8
5  28  8
6  24  8
8  29  8
8  31  8
9  36  5

$$$$
