SV_J26_0008
  -OEChem-07172407052D

 34 34  0     0  0  0  0  0  0999 V2000
    3.7320    3.5000    0.0000 F   0  0  0  0  0  0  0  0  0  0  0  0
    6.3301   -0.0000    0.0000 O   0  0  0  0  0  0  0  0  0  0  0  0
    7.1962    1.5000    0.0000 O   0  0  0  0  0  0  0  0  0  0  0  0
    5.4641    4.5000    0.0000 O   0  0  0  0  0  0  0  0  0  0  0  0
    4.5981   -0.0000    0.0000 N   0  0  0  0  0  0  0  0  0  0  0  0
    5.4641    1.5000    0.0000 N   0  0  0  0  0  0  0  0  0  0  0  0
    6.3301    3.0000    0.0000 N   0  0  0  0  0  0  0  0  0  0  0  0
    3.7320   -2.5000    0.0000 C   0  0  0  0  0  0  0  0  0  0  0  0
    3.7320   -1.5000    0.0000 C   0  0  0  0  0  0  0  0  0  0  0  0
    2.8660   -3.0000    0.0000 C   0  0  0  0  0  0  0  0  0  0  0  0
    4.5981   -1.0000    0.0000 C   0  0  0  0  0  0  0  0  0  0  0  0
    2.8660   -4.0000    0.0000 C   0  0  0  0  0  0  0  0  0  0  0  0
    2.0000   -4.5000    0.0000 C   0  0  0  0  0  0  0  0  0  0  0  0
    5.4641    0.5000    0.0000 C   0  0  0  0  0  0  0  0  0  0  0  0
    6.3301    2.0000    0.0000 C   0  0  0  0  0  0  0  0  0  0  0  0
    4.5981    2.0000    0.0000 C   0  0  0  0  0  0  0  0  0  0  0  0
    4.5981    3.0000    0.0000 C   0  0  0  0  0  0  0  0  0  0  0  0
    5.4641    3.5000    0.0000 C   0  0  0  0  0  0  0  0  0  0  0  0
    3.9441   -3.0826    0.0000 H   0  0  0  0  0  0  0  0  0  0  0  0
    4.3426   -2.3923    0.0000 H   0  0  0  0  0  0  0  0  0  0  0  0
    3.5200   -0.9174    0.0000 H   0  0  0  0  0  0  0  0  0  0  0  0
    3.1215   -1.6077    0.0000 H   0  0  0  0  0  0  0  0  0  0  0  0
    2.6540   -2.4174    0.0000 H   0  0  0  0  0  0  0  0  0  0  0  0
    2.2554   -3.1077    0.0000 H   0  0  0  0  0  0  0  0  0  0  0  0
    4.8101   -1.5826    0.0000 H   0  0  0  0  0  0  0  0  0  0  0  0
    5.2087   -0.8923    0.0000 H   0  0  0  0  0  0  0  0  0  0  0  0
    3.0781   -4.5826    0.0000 H   0  0  0  0  0  0  0  0  0  0  0  0
    3.4766   -3.8923    0.0000 H   0  0  0  0  0  0  0  0  0  0  0  0
    4.0611    0.3100    0.0000 H   0  0  0  0  0  0  0  0  0  0  0  0
    1.6900   -3.9631    0.0000 H   0  0  0  0  0  0  0  0  0  0  0  0
    1.4631   -4.8100    0.0000 H   0  0  0  0  0  0  0  0  0  0  0  0
    2.3100   -5.0369    0.0000 H   0  0  0  0  0  0  0  0  0  0  0  0
    4.0611    1.6900    0.0000 H   0  0  0  0  0  0  0  0  0  0  0  0
    6.8671    3.3100    0.0000 H   0  0  0  0  0  0  0  0  0  0  0  0
  1 17  1  0  0  0  0
  2 14  2  0  0  0  0
  3 15  2  0  0  0  0
  4 18  2  0  0  0  0
  5 11  1  0  0  0  0
  5 14  1  0  0  0  0
  5 29  1  0  0  0  0
  6 14  1  0  0  0  0
  6 15  1  0  0  0  0
  6 16  1  0  0  0  0
  7 15  1  0  0  0  0
  7 18  1  0  0  0  0
  7 34  1  0  0  0  0
  8  9  1  0  0  0  0
  8 10  1  0  0  0  0
  8 19  1  0  0  0  0
  8 20  1  0  0  0  0
  9 11  1  0  0  0  0
  9 21  1  0  0  0  0
  9 22  1  0  0  0  0
 10 12  1  0  0  0  0
 10 23  1  0  0  0  0
 10 24  1  0  0  0  0
 11 25  1  0  0  0  0
 11 26  1  0  0  0  0
 12 13  1  0  0  0  0
 12 27  1  0  0  0  0
 12 28  1  0  0  0  0
 13 30  1  0  0  0  0
 13 31  1  0  0  0  0
 13 32  1  0  0  0  0
 16 17  2  0  0  0  0
 16 33  1  0  0  0  0
 17 18  1  0  0  0  0
M  END
> <PUBCHEM_COMPOUND_CID>
2577

> <PUBCHEM_COMPOUND_CANONICALIZED>
1

> <PUBCHEM_CACTVS_COMPLEXITY>
382

> <PUBCHEM_CACTVS_HBOND_ACCEPTOR>
4

> <PUBCHEM_CACTVS_HBOND_DONOR>
2

> <PUBCHEM_CACTVS_ROTATABLE_BOND>
5

> <PUBCHEM_CACTVS_SUBSKEYS>
AAADceBzMQAAAAAAAAAAAAAAAAAAAAAAAAAgAAAAAAAAAAAAAAAAHwAQAAAACADBgAQDAAPAAACIAAFWUACAAAAAAAAAAIAIAECAAAIAgAAEAAAIFyIAAMEQAAAAAAAAAAAAAAAAAAAAAAAAAAAAAAAAAA==

> <PUBCHEM_IUPAC_OPENEYE_NAME>
5-fluoro-N-hexyl-2,4-dioxo-pyrimidine-1-carboxamide

> <PUBCHEM_IUPAC_CAS_NAME>
5-fluoro-N-hexyl-2,4-dioxo-1-pyrimidinecarboxamide

> <PUBCHEM_IUPAC_NAME_MARKUP>
5-fluoro-<I>N</I>-hexyl-2,4-dioxopyrimidine-1-carboxamide

> <PUBCHEM_IUPAC_NAME>
5-fluoro-N-hexyl-2,4-dioxopyrimidine-1-carboxamide

> <PUBCHEM_IUPAC_SYSTEMATIC_NAME>
5-fluoranyl-N-hexyl-2,4-bis(oxidanylidene)pyrimidine-1-carboxamide

> <PUBCHEM_IUPAC_TRADITIONAL_NAME>
5-fluoro-N-hexyl-2,4-diketo-pyrimidine-1-carboxamide

> <PUBCHEM_IUPAC_INCHI>
InChI=1S/C11H16FN3O3/c1-2-3-4-5-6-13-10(17)15-7-8(12)9(16)14-11(15)18/h7H,2-6H2,1H3,(H,13,17)(H,14,16,18)

> <PUBCHEM_IUPAC_INCHIKEY>
AOCCBINRVIKJHY-UHFFFAOYSA-N

> <PUBCHEM_XLOGP3>
2.6

> <PUBCHEM_EXACT_MASS>
257.11756954

> <PUBCHEM_MOLECULAR_FORMULA>
C11H16FN3O3

> <PUBCHEM_MOLECULAR_WEIGHT>
257.26

> <PUBCHEM_OPENEYE_CAN_SMILES>
CCCCCCNC(=O)N1C=C(C(=O)NC1=O)F

> <PUBCHEM_OPENEYE_ISO_SMILES>
CCCCCCNC(=O)N1C=C(C(=O)NC1=O)F

> <PUBCHEM_CACTVS_TPSA>
78.5

> <PUBCHEM_MONOISOTOPIC_WEIGHT>
257.11756954

> <PUBCHEM_TOTAL_CHARGE>
0

> <PUBCHEM_HEAVY_ATOM_COUNT>
18

> <PUBCHEM_ATOM_DEF_STEREO_COUNT>
0

> <PUBCHEM_ATOM_UDEF_STEREO_COUNT>
0

> <PUBCHEM_BOND_DEF_STEREO_COUNT>
0

> <PUBCHEM_BOND_UDEF_STEREO_COUNT>
0

> <PUBCHEM_ISOTOPIC_ATOM_COUNT>
0

> <PUBCHEM_COMPONENT_COUNT>
1

> <PUBCHEM_CACTVS_TAUTO_COUNT>
6

> <PUBCHEM_COORDINATE_TYPE>
1
5
255

> <PUBCHEM_BONDANNOTATIONS>
16  17  8
17  18  8
6  15  8
6  16  8
7  15  8
7  18  8

$$$$
