SV_J22_0020
  -OEChem-07172407482D

 46 47  0     1  0  0  0  0  0999 V2000
    6.3301   -5.2500    0.0000 Cl  0  0  0  0  0  0  0  0  0  0  0  0
    6.3301   -0.2500    0.0000 S   0  0  3  0  0  0  0  0  0  0  0  0
    2.8660   -3.2500    0.0000 O   0  0  0  0  0  0  0  0  0  0  0  0
    7.1962   -0.7500    0.0000 O   0  0  0  0  0  0  0  0  0  0  0  0
    6.3301   -2.2500    0.0000 O   0  0  0  0  0  0  0  0  0  0  0  0
    8.0622    0.7500    0.0000 O   0  0  0  0  0  0  0  0  0  0  0  0
   10.6603    4.2500    0.0000 O   0  0  0  0  0  0  0  0  0  0  0  0
    4.5981   -2.2500    0.0000 N   0  0  0  0  0  0  0  0  0  0  0  0
    7.1962    2.2500    0.0000 N   0  0  0  0  0  0  0  0  0  0  0  0
    5.4641   -0.7500    0.0000 C   0  0  0  0  0  0  0  0  0  0  0  0
    6.3301    0.7500    0.0000 C   0  0  0  0  0  0  0  0  0  0  0  0
    4.5981   -3.2500    0.0000 C   0  0  0  0  0  0  0  0  0  0  0  0
    5.4641   -1.7500    0.0000 C   0  0  0  0  0  0  0  0  0  0  0  0
    7.1962    1.2500    0.0000 C   0  0  0  0  0  0  0  0  0  0  0  0
    8.0622    2.7500    0.0000 C   0  0  0  0  0  0  0  0  0  0  0  0
    3.7320   -3.7500    0.0000 C   0  0  0  0  0  0  0  0  0  0  0  0
    5.4641   -3.7500    0.0000 C   0  0  0  0  0  0  0  0  0  0  0  0
    8.0622    3.7500    0.0000 C   0  0  0  0  0  0  0  0  0  0  0  0
    8.9282    2.2500    0.0000 C   0  0  0  0  0  0  0  0  0  0  0  0
    3.7320   -4.7500    0.0000 C   0  0  0  0  0  0  0  0  0  0  0  0
    5.4641   -4.7500    0.0000 C   0  0  0  0  0  0  0  0  0  0  0  0
    9.7942    3.7500    0.0000 C   0  0  0  0  0  0  0  0  0  0  0  0
    8.9282    4.2500    0.0000 C   0  0  0  0  0  0  0  0  0  0  0  0
    9.7942    2.7500    0.0000 C   0  0  0  0  0  0  0  0  0  0  0  0
    4.5981   -5.2500    0.0000 C   0  0  0  0  0  0  0  0  0  0  0  0
    2.0000   -3.7500    0.0000 C   0  0  0  0  0  0  0  0  0  0  0  0
   10.6603    5.2500    0.0000 C   0  0  0  0  0  0  0  0  0  0  0  0
    5.2520   -0.1674    0.0000 H   0  0  0  0  0  0  0  0  0  0  0  0
    4.8535   -0.8577    0.0000 H   0  0  0  0  0  0  0  0  0  0  0  0
    6.1181    1.3326    0.0000 H   0  0  0  0  0  0  0  0  0  0  0  0
    5.7196    0.6423    0.0000 H   0  0  0  0  0  0  0  0  0  0  0  0
    4.0611   -1.9400    0.0000 H   0  0  0  0  0  0  0  0  0  0  0  0
    6.6592    2.5600    0.0000 H   0  0  0  0  0  0  0  0  0  0  0  0
    6.0010   -3.4400    0.0000 H   0  0  0  0  0  0  0  0  0  0  0  0
    7.5252    4.0600    0.0000 H   0  0  0  0  0  0  0  0  0  0  0  0
    8.9282    1.6300    0.0000 H   0  0  0  0  0  0  0  0  0  0  0  0
    3.1951   -5.0600    0.0000 H   0  0  0  0  0  0  0  0  0  0  0  0
    8.9282    4.8700    0.0000 H   0  0  0  0  0  0  0  0  0  0  0  0
   10.3312    2.4400    0.0000 H   0  0  0  0  0  0  0  0  0  0  0  0
    4.5981   -5.8700    0.0000 H   0  0  0  0  0  0  0  0  0  0  0  0
    1.6900   -3.2131    0.0000 H   0  0  0  0  0  0  0  0  0  0  0  0
    1.4631   -4.0600    0.0000 H   0  0  0  0  0  0  0  0  0  0  0  0
    2.3100   -4.2869    0.0000 H   0  0  0  0  0  0  0  0  0  0  0  0
   11.2803    5.2500    0.0000 H   0  0  0  0  0  0  0  0  0  0  0  0
   10.6603    5.8700    0.0000 H   0  0  0  0  0  0  0  0  0  0  0  0
   10.0403    5.2500    0.0000 H   0  0  0  0  0  0  0  0  0  0  0  0
  1 21  1  0  0  0  0
  2  4  2  0  0  0  0
  2 10  1  0  0  0  0
  2 11  1  0  0  0  0
  3 16  1  0  0  0  0
  3 26  1  0  0  0  0
  5 13  2  0  0  0  0
  6 14  2  0  0  0  0
  7 22  1  0  0  0  0
  7 27  1  0  0  0  0
  8 12  1  0  0  0  0
  8 13  1  0  0  0  0
  8 32  1  0  0  0  0
  9 14  1  0  0  0  0
  9 15  1  0  0  0  0
  9 33  1  0  0  0  0
 10 13  1  0  0  0  0
 10 28  1  0  0  0  0
 10 29  1  0  0  0  0
 11 14  1  0  0  0  0
 11 30  1  0  0  0  0
 11 31  1  0  0  0  0
 12 16  2  0  0  0  0
 12 17  1  0  0  0  0
 15 18  2  0  0  0  0
 15 19  1  0  0  0  0
 16 20  1  0  0  0  0
 17 21  2  0  0  0  0
 17 34  1  0  0  0  0
 18 23  1  0  0  0  0
 18 35  1  0  0  0  0
 19 24  2  0  0  0  0
 19 36  1  0  0  0  0
 20 25  2  0  0  0  0
 20 37  1  0  0  0  0
 21 25  1  0  0  0  0
 22 23  2  0  0  0  0
 22 24  1  0  0  0  0
 23 38  1  0  0  0  0
 24 39  1  0  0  0  0
 25 40  1  0  0  0  0
 26 41  1  0  0  0  0
 26 42  1  0  0  0  0
 26 43  1  0  0  0  0
 27 44  1  0  0  0  0
 27 45  1  0  0  0  0
 27 46  1  0  0  0  0
M  END
> <PUBCHEM_COMPOUND_CID>
650645

> <PUBCHEM_COMPOUND_CANONICALIZED>
1

> <PUBCHEM_CACTVS_COMPLEXITY>
528

> <PUBCHEM_CACTVS_HBOND_ACCEPTOR>
6

> <PUBCHEM_CACTVS_HBOND_DONOR>
2

> <PUBCHEM_CACTVS_ROTATABLE_BOND>
8

> <PUBCHEM_CACTVS_SUBSKEYS>
AAADceB7OABEAAAAAAAAAAAAAAAAAAAAAAAwYAAAAAAAAAABQAAAHgYQAAAACA6F0CKyxoLABAqIACVSUEDCCAAhJxAIiAAHbogOJiLFs5uFMChk1BH46AewQAAAAGAAAAIAEAAAwAAABAAgAAAAAAAAAA==

> <PUBCHEM_IUPAC_OPENEYE_NAME>
2-[2-(5-chloro-2-methoxy-anilino)-2-oxo-ethyl]sulfinyl-N-(4-methoxyphenyl)acetamide

> <PUBCHEM_IUPAC_CAS_NAME>
2-[2-(5-chloro-2-methoxyanilino)-2-oxoethyl]sulfinyl-N-(4-methoxyphenyl)acetamide

> <PUBCHEM_IUPAC_NAME_MARKUP>
2-[2-(5-chloro-2-methoxyanilino)-2-oxoethyl]sulfinyl-<I>N</I>-(4-methoxyphenyl)acetamide

> <PUBCHEM_IUPAC_NAME>
2-[2-(5-chloro-2-methoxyanilino)-2-oxoethyl]sulfinyl-N-(4-methoxyphenyl)acetamide

> <PUBCHEM_IUPAC_SYSTEMATIC_NAME>
2-[2-[(5-chloranyl-2-methoxy-phenyl)amino]-2-oxidanylidene-ethyl]sulfinyl-N-(4-methoxyphenyl)ethanamide

> <PUBCHEM_IUPAC_TRADITIONAL_NAME>
2-[2-(5-chloro-2-methoxy-anilino)-2-keto-ethyl]sulfinyl-N-(4-methoxyphenyl)acetamide

> <PUBCHEM_IUPAC_INCHI>
InChI=1S/C18H19ClN2O5S/c1-25-14-6-4-13(5-7-14)20-17(22)10-27(24)11-18(23)21-15-9-12(19)3-8-16(15)26-2/h3-9H,10-11H2,1-2H3,(H,20,22)(H,21,23)

> <PUBCHEM_IUPAC_INCHIKEY>
VIKKWKMEMPDSPI-UHFFFAOYSA-N

> <PUBCHEM_XLOGP3_AA>
2.5

> <PUBCHEM_EXACT_MASS>
410.0703206

> <PUBCHEM_MOLECULAR_FORMULA>
C18H19ClN2O5S

> <PUBCHEM_MOLECULAR_WEIGHT>
410.9

> <PUBCHEM_OPENEYE_CAN_SMILES>
COC1=CC=C(C=C1)NC(=O)CS(=O)CC(=O)NC2=C(C=CC(=C2)Cl)OC

> <PUBCHEM_OPENEYE_ISO_SMILES>
COC1=CC=C(C=C1)NC(=O)CS(=O)CC(=O)NC2=C(C=CC(=C2)Cl)OC

> <PUBCHEM_CACTVS_TPSA>
113

> <PUBCHEM_MONOISOTOPIC_WEIGHT>
410.0703206

> <PUBCHEM_TOTAL_CHARGE>
0

> <PUBCHEM_HEAVY_ATOM_COUNT>
27

> <PUBCHEM_ATOM_DEF_STEREO_COUNT>
0

> <PUBCHEM_ATOM_UDEF_STEREO_COUNT>
1

> <PUBCHEM_BOND_DEF_STEREO_COUNT>
0

> <PUBCHEM_BOND_UDEF_STEREO_COUNT>
0

> <PUBCHEM_ISOTOPIC_ATOM_COUNT>
0

> <PUBCHEM_COMPONENT_COUNT>
1

> <PUBCHEM_CACTVS_TAUTO_COUNT>
-1

> <PUBCHEM_COORDINATE_TYPE>
1
5
255

> <PUBCHEM_BONDANNOTATIONS>
12  16  8
12  17  8
15  18  8
15  19  8
16  20  8
17  21  8
18  23  8
19  24  8
2  11  3
20  25  8
21  25  8
22  23  8
22  24  8

$$$$
