SV_J13_0002
  -OEChem-07172407042D

 51 55  0     0  0  0  0  0  0999 V2000
   13.8651   -2.3978    0.0000 F   0  0  0  0  0  0  0  0  0  0  0  0
   13.8651   -1.2222    0.0000 F   0  0  0  0  0  0  0  0  0  0  0  0
    8.0622   -2.3100    0.0000 O   0  0  0  0  0  0  0  0  0  0  0  0
   12.4725   -1.0053    0.0000 O   0  0  0  0  0  0  0  0  0  0  0  0
   12.4725   -2.6147    0.0000 O   0  0  0  0  0  0  0  0  0  0  0  0
    2.0000    2.1900    0.0000 O   0  0  0  0  0  0  0  0  0  0  0  0
    3.7320    2.1900    0.0000 O   0  0  0  0  0  0  0  0  0  0  0  0
    7.1962   -0.8100    0.0000 N   0  0  0  0  0  0  0  0  0  0  0  0
    5.4641   -0.8100    0.0000 N   0  0  0  0  0  0  0  0  0  0  0  0
    8.9282   -0.8100    0.0000 C   0  0  0  0  0  0  0  0  0  0  0  0
    9.4282    0.0560    0.0000 C   0  0  0  0  0  0  0  0  0  0  0  0
    8.4282    0.0560    0.0000 C   0  0  0  0  0  0  0  0  0  0  0  0
    9.7942   -1.3100    0.0000 C   0  0  0  0  0  0  0  0  0  0  0  0
    8.0622   -1.3100    0.0000 C   0  0  0  0  0  0  0  0  0  0  0  0
   10.6603   -0.8100    0.0000 C   0  0  0  0  0  0  0  0  0  0  0  0
    9.7942   -2.3100    0.0000 C   0  0  0  0  0  0  0  0  0  0  0  0
   11.5263   -1.3100    0.0000 C   0  0  0  0  0  0  0  0  0  0  0  0
   10.6603   -2.8100    0.0000 C   0  0  0  0  0  0  0  0  0  0  0  0
   11.5263   -2.3100    0.0000 C   0  0  0  0  0  0  0  0  0  0  0  0
    6.3301   -1.3100    0.0000 C   0  0  0  0  0  0  0  0  0  0  0  0
   13.0561   -1.8100    0.0000 C   0  0  0  0  0  0  0  0  0  0  0  0
    6.3301   -2.3100    0.0000 C   0  0  0  0  0  0  0  0  0  0  0  0
    4.5981   -1.3100    0.0000 C   0  0  0  0  0  0  0  0  0  0  0  0
    5.4641   -2.8100    0.0000 C   0  0  0  0  0  0  0  0  0  0  0  0
    4.5981   -2.3100    0.0000 C   0  0  0  0  0  0  0  0  0  0  0  0
    3.7320   -0.8100    0.0000 C   0  0  0  0  0  0  0  0  0  0  0  0
    3.7320   -2.8100    0.0000 C   0  0  0  0  0  0  0  0  0  0  0  0
    3.7320    0.1900    0.0000 C   0  0  0  0  0  0  0  0  0  0  0  0
    2.8660   -1.3100    0.0000 C   0  0  0  0  0  0  0  0  0  0  0  0
    2.8660    0.6900    0.0000 C   0  0  0  0  0  0  0  0  0  0  0  0
    2.0000   -0.8100    0.0000 C   0  0  0  0  0  0  0  0  0  0  0  0
    2.0000    0.1900    0.0000 C   0  0  0  0  0  0  0  0  0  0  0  0
    2.8660    1.6900    0.0000 C   0  0  0  0  0  0  0  0  0  0  0  0
   10.0108   -0.1560    0.0000 H   0  0  0  0  0  0  0  0  0  0  0  0
    9.5359    0.6666    0.0000 H   0  0  0  0  0  0  0  0  0  0  0  0
    8.3205    0.6666    0.0000 H   0  0  0  0  0  0  0  0  0  0  0  0
    7.8456   -0.1560    0.0000 H   0  0  0  0  0  0  0  0  0  0  0  0
   10.6603   -0.1900    0.0000 H   0  0  0  0  0  0  0  0  0  0  0  0
    9.2573   -2.6200    0.0000 H   0  0  0  0  0  0  0  0  0  0  0  0
    7.1962   -0.1900    0.0000 H   0  0  0  0  0  0  0  0  0  0  0  0
   10.6603   -3.4300    0.0000 H   0  0  0  0  0  0  0  0  0  0  0  0
    6.8671   -2.6200    0.0000 H   0  0  0  0  0  0  0  0  0  0  0  0
    5.4641   -3.4300    0.0000 H   0  0  0  0  0  0  0  0  0  0  0  0
    3.4220   -2.2731    0.0000 H   0  0  0  0  0  0  0  0  0  0  0  0
    3.1951   -3.1200    0.0000 H   0  0  0  0  0  0  0  0  0  0  0  0
    4.0420   -3.3469    0.0000 H   0  0  0  0  0  0  0  0  0  0  0  0
    4.2690    0.5000    0.0000 H   0  0  0  0  0  0  0  0  0  0  0  0
    2.8660   -1.9300    0.0000 H   0  0  0  0  0  0  0  0  0  0  0  0
    1.4631   -1.1200    0.0000 H   0  0  0  0  0  0  0  0  0  0  0  0
    1.4631    0.5000    0.0000 H   0  0  0  0  0  0  0  0  0  0  0  0
    2.0000    2.8100    0.0000 H   0  0  0  0  0  0  0  0  0  0  0  0
  1 21  1  0  0  0  0
  2 21  1  0  0  0  0
  3 14  2  0  0  0  0
  4 17  1  0  0  0  0
  4 21  1  0  0  0  0
  5 19  1  0  0  0  0
  5 21  1  0  0  0  0
  6 33  1  0  0  0  0
  6 51  1  0  0  0  0
  7 33  2  0  0  0  0
  8 14  1  0  0  0  0
  8 20  1  0  0  0  0
  8 40  1  0  0  0  0
  9 20  2  0  0  0  0
  9 23  1  0  0  0  0
 10 11  1  0  0  0  0
 10 12  1  0  0  0  0
 10 13  1  0  0  0  0
 10 14  1  0  0  0  0
 11 12  1  0  0  0  0
 11 34  1  0  0  0  0
 11 35  1  0  0  0  0
 12 36  1  0  0  0  0
 12 37  1  0  0  0  0
 13 15  2  0  0  0  0
 13 16  1  0  0  0  0
 15 17  1  0  0  0  0
 15 38  1  0  0  0  0
 16 18  2  0  0  0  0
 16 39  1  0  0  0  0
 17 19  2  0  0  0  0
 18 19  1  0  0  0  0
 18 41  1  0  0  0  0
 20 22  1  0  0  0  0
 22 24  2  0  0  0  0
 22 42  1  0  0  0  0
 23 25  2  0  0  0  0
 23 26  1  0  0  0  0
 24 25  1  0  0  0  0
 24 43  1  0  0  0  0
 25 27  1  0  0  0  0
 26 28  2  0  0  0  0
 26 29  1  0  0  0  0
 27 44  1  0  0  0  0
 27 45  1  0  0  0  0
 27 46  1  0  0  0  0
 28 30  1  0  0  0  0
 28 47  1  0  0  0  0
 29 31  2  0  0  0  0
 29 48  1  0  0  0  0
 30 32  2  0  0  0  0
 30 33  1  0  0  0  0
 31 32  1  0  0  0  0
 31 49  1  0  0  0  0
 32 50  1  0  0  0  0
M  END
> <PUBCHEM_COMPOUND_CID>
16678941

> <PUBCHEM_COMPOUND_CANONICALIZED>
1

> <PUBCHEM_CACTVS_COMPLEXITY>
776

> <PUBCHEM_CACTVS_HBOND_ACCEPTOR>
8

> <PUBCHEM_CACTVS_HBOND_DONOR>
2

> <PUBCHEM_CACTVS_ROTATABLE_BOND>
5

> <PUBCHEM_CACTVS_SUBSKEYS>
AAADceB7OYAAAAAAAAAAAAAAGAAAASAAAAA8YIAAAAAAAEgB0AAAHwAQCAAADgyBnhAzvpLIFgCoAyfyfACCiCklIiAJmCE27NidJvLEvZukcSps1RPO+aeY3fPfoAADAAAAQABAAAYAAACAAAAAAAAAAA==

> <PUBCHEM_IUPAC_OPENEYE_NAME>
3-[6-[[1-(2,2-difluoro-1,3-benzodioxol-5-yl)cyclopropanecarbonyl]amino]-3-methyl-2-pyridyl]benzoic acid

> <PUBCHEM_IUPAC_CAS_NAME>
3-[6-[[[1-(2,2-difluoro-1,3-benzodioxol-5-yl)cyclopropyl]-oxomethyl]amino]-3-methyl-2-pyridinyl]benzoic acid

> <PUBCHEM_IUPAC_NAME_MARKUP>
3-[6-[[1-(2,2-difluoro-1,3-benzodioxol-5-yl)cyclopropanecarbonyl]amino]-3-methylpyridin-2-yl]benzoic acid

> <PUBCHEM_IUPAC_NAME>
3-[6-[[1-(2,2-difluoro-1,3-benzodioxol-5-yl)cyclopropanecarbonyl]amino]-3-methylpyridin-2-yl]benzoic acid

> <PUBCHEM_IUPAC_SYSTEMATIC_NAME>
3-[6-[[1-[2,2-bis(fluoranyl)-1,3-benzodioxol-5-yl]cyclopropyl]carbonylamino]-3-methyl-pyridin-2-yl]benzoic acid

> <PUBCHEM_IUPAC_TRADITIONAL_NAME>
3-[6-[[1-(2,2-difluoro-1,3-benzodioxol-5-yl)cyclopropanecarbonyl]amino]-3-methyl-2-pyridyl]benzoic acid

> <PUBCHEM_IUPAC_INCHI>
InChI=1S/C24H18F2N2O5/c1-13-5-8-19(27-20(13)14-3-2-4-15(11-14)21(29)30)28-22(31)23(9-10-23)16-6-7-17-18(12-16)33-24(25,26)32-17/h2-8,11-12H,9-10H2,1H3,(H,29,30)(H,27,28,31)

> <PUBCHEM_IUPAC_INCHIKEY>
UFSKUSARDNFIRC-UHFFFAOYSA-N

> <PUBCHEM_XLOGP3_AA>
4.4

> <PUBCHEM_EXACT_MASS>
452.11837800

> <PUBCHEM_MOLECULAR_FORMULA>
C24H18F2N2O5

> <PUBCHEM_MOLECULAR_WEIGHT>
452.4

> <PUBCHEM_OPENEYE_CAN_SMILES>
CC1=C(N=C(C=C1)NC(=O)C2(CC2)C3=CC4=C(C=C3)OC(O4)(F)F)C5=CC(=CC=C5)C(=O)O

> <PUBCHEM_OPENEYE_ISO_SMILES>
CC1=C(N=C(C=C1)NC(=O)C2(CC2)C3=CC4=C(C=C3)OC(O4)(F)F)C5=CC(=CC=C5)C(=O)O

> <PUBCHEM_CACTVS_TPSA>
97.8

> <PUBCHEM_MONOISOTOPIC_WEIGHT>
452.11837800

> <PUBCHEM_TOTAL_CHARGE>
0

> <PUBCHEM_HEAVY_ATOM_COUNT>
33

> <PUBCHEM_ATOM_DEF_STEREO_COUNT>
0

> <PUBCHEM_ATOM_UDEF_STEREO_COUNT>
0

> <PUBCHEM_BOND_DEF_STEREO_COUNT>
0

> <PUBCHEM_BOND_UDEF_STEREO_COUNT>
0

> <PUBCHEM_ISOTOPIC_ATOM_COUNT>
0

> <PUBCHEM_COMPONENT_COUNT>
1

> <PUBCHEM_CACTVS_TAUTO_COUNT>
-1

> <PUBCHEM_COORDINATE_TYPE>
1
5
255

> <PUBCHEM_BONDANNOTATIONS>
13  15  8
13  16  8
15  17  8
16  18  8
17  19  8
18  19  8
20  22  8
22  24  8
23  25  8
24  25  8
26  28  8
26  29  8
28  30  8
29  31  8
30  32  8
31  32  8
9  20  8
9  23  8

$$$$
