SV_J12_0007
  -OEChem-07172407042D

 91 93  0     1  0  0  0  0  0999 V2000
    8.0622   -3.5000    0.0000 O   0  0  0  0  0  0  0  0  0  0  0  0
    7.1962    2.0000    0.0000 O   0  0  0  0  0  0  0  0  0  0  0  0
    5.4641   -1.0000    0.0000 O   0  0  0  0  0  0  0  0  0  0  0  0
   12.6477   -1.1151    0.0000 O   0  0  0  0  0  0  0  0  0  0  0  0
   10.6603   -4.0000    0.0000 O   0  0  0  0  0  0  0  0  0  0  0  0
    4.5981    2.5000    0.0000 O   0  0  0  0  0  0  0  0  0  0  0  0
    6.3301    2.5000    0.0000 O   0  0  0  0  0  0  0  0  0  0  0  0
    7.1962   -1.0000    0.0000 N   0  0  0  0  0  0  0  0  0  0  0  0
    8.9282   -2.0000    0.0000 N   0  0  0  0  0  0  0  0  0  0  0  0
   13.1090   -2.8364    0.0000 N   0  0  0  0  0  0  0  0  0  0  0  0
    5.4641    1.0000    0.0000 N   0  0  0  0  0  0  0  0  0  0  0  0
    6.3301   -3.5000    0.0000 C   0  0  0  0  0  0  0  0  0  0  0  0
    5.4641   -4.0000    0.0000 C   0  0  0  0  0  0  0  0  0  0  0  0
    7.1962   -4.0000    0.0000 C   0  0  0  0  0  0  0  0  0  0  0  0
    6.3301   -2.5000    0.0000 C   0  0  0  0  0  0  0  0  0  0  0  0
    5.4641   -5.0000    0.0000 C   0  0  0  0  0  0  0  0  0  0  0  0
    7.1962   -5.0000    0.0000 C   0  0  0  0  0  0  0  0  0  0  0  0
    6.3301   -5.5000    0.0000 C   0  0  0  0  0  0  0  0  0  0  0  0
    7.1962   -2.0000    0.0000 C   0  0  1  0  0  0  0  0  0  0  0  0
    8.0622   -2.5000    0.0000 C   0  0  0  0  0  0  0  0  0  0  0  0
   11.5263   -2.5000    0.0000 C   0  0  2  0  0  0  0  0  0  0  0  0
   10.6603   -2.0000    0.0000 C   0  0  0  0  0  0  0  0  0  0  0  0
    9.7942   -2.5000    0.0000 C   0  0  1  0  0  0  0  0  0  0  0  0
   11.6308   -3.4945    0.0000 C   0  0  0  0  0  0  0  0  0  0  0  0
    6.3301   -0.5000    0.0000 C   0  0  0  0  0  0  0  0  0  0  0  0
    6.3301    0.5000    0.0000 C   0  0  2  0  0  0  0  0  0  0  0  0
   12.6090   -3.7024    0.0000 C   0  0  0  0  0  0  0  0  0  0  0  0
   12.4398   -2.0933    0.0000 C   0  0  0  0  0  0  0  0  0  0  0  0
    7.1962    1.0000    0.0000 C   0  0  1  0  0  0  0  0  0  0  0  0
    9.7942   -3.5000    0.0000 C   0  0  0  0  0  0  0  0  0  0  0  0
    8.0622    2.5000    0.0000 C   0  0  0  0  0  0  0  0  0  0  0  0
    8.0622    0.5000    0.0000 C   0  0  0  0  0  0  0  0  0  0  0  0
    8.9282    3.0000    0.0000 C   0  0  0  0  0  0  0  0  0  0  0  0
    7.5622    3.3660    0.0000 C   0  0  0  0  0  0  0  0  0  0  0  0
    8.5622    1.6340    0.0000 C   0  0  0  0  0  0  0  0  0  0  0  0
    5.4641    2.0000    0.0000 C   0  0  0  0  0  0  0  0  0  0  0  0
    4.5981    3.5000    0.0000 C   0  0  0  0  0  0  0  0  0  0  0  0
    3.7320    4.0000    0.0000 C   0  0  0  0  0  0  0  0  0  0  0  0
    3.7320    5.0000    0.0000 C   0  0  0  0  0  0  0  0  0  0  0  0
    2.8660    3.5000    0.0000 C   0  0  0  0  0  0  0  0  0  0  0  0
    2.8660    5.5000    0.0000 C   0  0  0  0  0  0  0  0  0  0  0  0
    2.0000    4.0000    0.0000 C   0  0  0  0  0  0  0  0  0  0  0  0
    2.0000    5.0000    0.0000 C   0  0  0  0  0  0  0  0  0  0  0  0
    6.8671   -3.1900    0.0000 H   0  0  0  0  0  0  0  0  0  0  0  0
    5.2520   -3.4174    0.0000 H   0  0  0  0  0  0  0  0  0  0  0  0
    4.8535   -4.1077    0.0000 H   0  0  0  0  0  0  0  0  0  0  0  0
    7.8067   -4.1077    0.0000 H   0  0  0  0  0  0  0  0  0  0  0  0
    7.4082   -3.4174    0.0000 H   0  0  0  0  0  0  0  0  0  0  0  0
    6.1181   -1.9174    0.0000 H   0  0  0  0  0  0  0  0  0  0  0  0
    5.7196   -2.6077    0.0000 H   0  0  0  0  0  0  0  0  0  0  0  0
    4.8535   -4.8923    0.0000 H   0  0  0  0  0  0  0  0  0  0  0  0
    5.2520   -5.5826    0.0000 H   0  0  0  0  0  0  0  0  0  0  0  0
    7.4082   -5.5826    0.0000 H   0  0  0  0  0  0  0  0  0  0  0  0
    7.8067   -4.8923    0.0000 H   0  0  0  0  0  0  0  0  0  0  0  0
    5.9316   -5.9750    0.0000 H   0  0  0  0  0  0  0  0  0  0  0  0
    6.7287   -5.9750    0.0000 H   0  0  0  0  0  0  0  0  0  0  0  0
    6.6592   -1.6900    0.0000 H   0  0  0  0  0  0  0  0  0  0  0  0
    7.7331   -0.6900    0.0000 H   0  0  0  0  0  0  0  0  0  0  0  0
   11.0063   -2.8377    0.0000 H   0  0  0  0  0  0  0  0  0  0  0  0
   11.0588   -1.5250    0.0000 H   0  0  0  0  0  0  0  0  0  0  0  0
   10.2617   -1.5250    0.0000 H   0  0  0  0  0  0  0  0  0  0  0  0
    9.2573   -2.8100    0.0000 H   0  0  0  0  0  0  0  0  0  0  0  0
    8.9282   -1.3800    0.0000 H   0  0  0  0  0  0  0  0  0  0  0  0
   11.0108   -3.4945    0.0000 H   0  0  0  0  0  0  0  0  0  0  0  0
   11.5660   -4.1111    0.0000 H   0  0  0  0  0  0  0  0  0  0  0  0
    5.7932    0.1900    0.0000 H   0  0  0  0  0  0  0  0  0  0  0  0
   12.4174   -4.2921    0.0000 H   0  0  0  0  0  0  0  0  0  0  0  0
   13.1754   -3.9546    0.0000 H   0  0  0  0  0  0  0  0  0  0  0  0
    6.6592    1.3100    0.0000 H   0  0  0  0  0  0  0  0  0  0  0  0
   13.7256   -2.7716    0.0000 H   0  0  0  0  0  0  0  0  0  0  0  0
    9.2573   -3.8100    0.0000 H   0  0  0  0  0  0  0  0  0  0  0  0
    4.9272    0.6900    0.0000 H   0  0  0  0  0  0  0  0  0  0  0  0
    7.7522   -0.0369    0.0000 H   0  0  0  0  0  0  0  0  0  0  0  0
    8.5991    0.1900    0.0000 H   0  0  0  0  0  0  0  0  0  0  0  0
    8.3722    1.0369    0.0000 H   0  0  0  0  0  0  0  0  0  0  0  0
    9.2382    2.4631    0.0000 H   0  0  0  0  0  0  0  0  0  0  0  0
    9.4651    3.3100    0.0000 H   0  0  0  0  0  0  0  0  0  0  0  0
    8.6182    3.5369    0.0000 H   0  0  0  0  0  0  0  0  0  0  0  0
    8.0991    3.6760    0.0000 H   0  0  0  0  0  0  0  0  0  0  0  0
    7.2522    3.9030    0.0000 H   0  0  0  0  0  0  0  0  0  0  0  0
    7.0252    3.0560    0.0000 H   0  0  0  0  0  0  0  0  0  0  0  0
    8.0252    1.3240    0.0000 H   0  0  0  0  0  0  0  0  0  0  0  0
    8.8722    1.0970    0.0000 H   0  0  0  0  0  0  0  0  0  0  0  0
    9.0991    1.9440    0.0000 H   0  0  0  0  0  0  0  0  0  0  0  0
    5.2087    3.3923    0.0000 H   0  0  0  0  0  0  0  0  0  0  0  0
    4.8101    4.0826    0.0000 H   0  0  0  0  0  0  0  0  0  0  0  0
    4.2690    5.3100    0.0000 H   0  0  0  0  0  0  0  0  0  0  0  0
    2.8660    2.8800    0.0000 H   0  0  0  0  0  0  0  0  0  0  0  0
    2.8660    6.1200    0.0000 H   0  0  0  0  0  0  0  0  0  0  0  0
    1.4631    3.6900    0.0000 H   0  0  0  0  0  0  0  0  0  0  0  0
    1.4631    5.3100    0.0000 H   0  0  0  0  0  0  0  0  0  0  0  0
  1 20  2  0  0  0  0
 29  2  1  6  0  0  0
  2 31  1  0  0  0  0
  3 25  2  0  0  0  0
  4 28  2  0  0  0  0
  5 30  2  0  0  0  0
  6 36  1  0  0  0  0
  6 37  1  0  0  0  0
  7 36  2  0  0  0  0
 19  8  1  6  0  0  0
  8 25  1  0  0  0  0
  8 58  1  0  0  0  0
  9 20  1  0  0  0  0
 23  9  1  1  0  0  0
  9 63  1  0  0  0  0
 10 27  1  0  0  0  0
 10 28  1  0  0  0  0
 10 70  1  0  0  0  0
 26 11  1  1  0  0  0
 11 36  1  0  0  0  0
 11 72  1  0  0  0  0
 12 13  1  0  0  0  0
 12 14  1  0  0  0  0
 12 15  1  0  0  0  0
 12 44  1  0  0  0  0
 13 16  1  0  0  0  0
 13 45  1  0  0  0  0
 13 46  1  0  0  0  0
 14 17  1  0  0  0  0
 14 47  1  0  0  0  0
 14 48  1  0  0  0  0
 15 19  1  0  0  0  0
 15 49  1  0  0  0  0
 15 50  1  0  0  0  0
 16 18  1  0  0  0  0
 16 51  1  0  0  0  0
 16 52  1  0  0  0  0
 17 18  1  0  0  0  0
 17 53  1  0  0  0  0
 17 54  1  0  0  0  0
 18 55  1  0  0  0  0
 18 56  1  0  0  0  0
 19 20  1  0  0  0  0
 19 57  1  0  0  0  0
 21 22  1  1  0  0  0
 21 24  1  0  0  0  0
 21 28  1  0  0  0  0
 21 59  1  0  0  0  0
 22 23  1  0  0  0  0
 22 60  1  0  0  0  0
 22 61  1  0  0  0  0
 23 30  1  0  0  0  0
 23 62  1  0  0  0  0
 24 27  1  0  0  0  0
 24 64  1  0  0  0  0
 24 65  1  0  0  0  0
 25 26  1  0  0  0  0
 26 29  1  0  0  0  0
 26 66  1  0  0  0  0
 27 67  1  0  0  0  0
 27 68  1  0  0  0  0
 29 32  1  0  0  0  0
 29 69  1  0  0  0  0
 30 71  1  0  0  0  0
 31 33  1  0  0  0  0
 31 34  1  0  0  0  0
 31 35  1  0  0  0  0
 32 73  1  0  0  0  0
 32 74  1  0  0  0  0
 32 75  1  0  0  0  0
 33 76  1  0  0  0  0
 33 77  1  0  0  0  0
 33 78  1  0  0  0  0
 34 79  1  0  0  0  0
 34 80  1  0  0  0  0
 34 81  1  0  0  0  0
 35 82  1  0  0  0  0
 35 83  1  0  0  0  0
 35 84  1  0  0  0  0
 37 38  1  0  0  0  0
 37 85  1  0  0  0  0
 37 86  1  0  0  0  0
 38 39  2  0  0  0  0
 38 40  1  0  0  0  0
 39 41  1  0  0  0  0
 39 87  1  0  0  0  0
 40 42  2  0  0  0  0
 40 88  1  0  0  0  0
 41 43  2  0  0  0  0
 41 89  1  0  0  0  0
 42 43  1  0  0  0  0
 42 90  1  0  0  0  0
 43 91  1  0  0  0  0
M  END
> <PUBCHEM_COMPOUND_CID>
11844348

> <PUBCHEM_COMPOUND_CANONICALIZED>
1

> <PUBCHEM_CACTVS_COMPLEXITY>
941

> <PUBCHEM_CACTVS_HBOND_ACCEPTOR>
7

> <PUBCHEM_CACTVS_HBOND_DONOR>
4

> <PUBCHEM_CACTVS_ROTATABLE_BOND>
16

> <PUBCHEM_CACTVS_SUBSKEYS>
AAADcfB/uAAAAAAAAAAAAAAAAAAAAWAAAAAwYAAAAAAAAAABAAAAHgAQAAAADXzhmAYyCILABACIAilSmAACAAAgAAAIiIGICIkKZjaAsTifMAAm9gGYqAecy6COAAAAAAAAAAAAAAAAAAAAAAAAAAAAAA==

> <PUBCHEM_IUPAC_OPENEYE_NAME>
benzyl N-[(1S,2R)-2-tert-butoxy-1-[[(1S)-1-(cyclohexylmethyl)-2-[[(1S)-1-formyl-2-[(3S)-2-oxopyrrolidin-3-yl]ethyl]amino]-2-oxo-ethyl]carbamoyl]propyl]carbamate

> <PUBCHEM_IUPAC_CAS_NAME>
N-[(2S,3R)-1-[[(2S)-3-cyclohexyl-1-oxo-1-[[(2S)-1-oxo-3-[(3S)-2-oxo-3-pyrrolidinyl]propan-2-yl]amino]propan-2-yl]amino]-3-[(2-methylpropan-2-yl)oxy]-1-oxobutan-2-yl]carbamic acid (phenylmethyl) ester

> <PUBCHEM_IUPAC_NAME_MARKUP>
benzyl <I>N</I>-[(2<I>S</I>,3<I>R</I>)-1-[[(2<I>S</I>)-3-cyclohexyl-1-oxo-1-[[(2<I>S</I>)-1-oxo-3-[(3<I>S</I>)-2-oxopyrrolidin-3-yl]propan-2-yl]amino]propan-2-yl]amino]-3-[(2-methylpropan-2-yl)oxy]-1-oxobutan-2-yl]carbamate

> <PUBCHEM_IUPAC_NAME>
benzyl N-[(2S,3R)-1-[[(2S)-3-cyclohexyl-1-oxo-1-[[(2S)-1-oxo-3-[(3S)-2-oxopyrrolidin-3-yl]propan-2-yl]amino]propan-2-yl]amino]-3-[(2-methylpropan-2-yl)oxy]-1-oxobutan-2-yl]carbamate

> <PUBCHEM_IUPAC_SYSTEMATIC_NAME>
(phenylmethyl) N-[(2S,3R)-1-[[(2S)-3-cyclohexyl-1-oxidanylidene-1-[[(2S)-1-oxidanylidene-3-[(3S)-2-oxidanylidenepyrrolidin-3-yl]propan-2-yl]amino]propan-2-yl]amino]-3-[(2-methylpropan-2-yl)oxy]-1-oxidanylidene-butan-2-yl]carbamate

> <PUBCHEM_IUPAC_TRADITIONAL_NAME>
N-[(1S,2R)-2-tert-butoxy-1-[[(1S)-1-(cyclohexylmethyl)-2-[[(1S)-1-formyl-2-[(3S)-2-ketopyrrolidin-3-yl]ethyl]amino]-2-keto-ethyl]carbamoyl]propyl]carbamic acid benzyl ester

> <PUBCHEM_IUPAC_INCHI>
InChI=1S/C32H48N4O7/c1-21(43-32(2,3)4)27(36-31(41)42-20-23-13-9-6-10-14-23)30(40)35-26(17-22-11-7-5-8-12-22)29(39)34-25(19-37)18-24-15-16-33-28(24)38/h6,9-10,13-14,19,21-22,24-27H,5,7-8,11-12,15-18,20H2,1-4H3,(H,33,38)(H,34,39)(H,35,40)(H,36,41)/t21-,24+,25+,26+,27+/m1/s1

> <PUBCHEM_IUPAC_INCHIKEY>
YFUZVOLEKQFVCQ-FFXRMZKPSA-N

> <PUBCHEM_XLOGP3_AA>
3.9

> <PUBCHEM_EXACT_MASS>
600.35229988

> <PUBCHEM_MOLECULAR_FORMULA>
C32H48N4O7

> <PUBCHEM_MOLECULAR_WEIGHT>
600.7

> <PUBCHEM_OPENEYE_CAN_SMILES>
CC(C(C(=O)NC(CC1CCCCC1)C(=O)NC(CC2CCNC2=O)C=O)NC(=O)OCC3=CC=CC=C3)OC(C)(C)C

> <PUBCHEM_OPENEYE_ISO_SMILES>
C[C@H]([C@@H](C(=O)N[C@@H](CC1CCCCC1)C(=O)N[C@@H](C[C@@H]2CCNC2=O)C=O)NC(=O)OCC3=CC=CC=C3)OC(C)(C)C

> <PUBCHEM_CACTVS_TPSA>
152

> <PUBCHEM_MONOISOTOPIC_WEIGHT>
600.35229988

> <PUBCHEM_TOTAL_CHARGE>
0

> <PUBCHEM_HEAVY_ATOM_COUNT>
43

> <PUBCHEM_ATOM_DEF_STEREO_COUNT>
5

> <PUBCHEM_ATOM_UDEF_STEREO_COUNT>
0

> <PUBCHEM_BOND_DEF_STEREO_COUNT>
0

> <PUBCHEM_BOND_UDEF_STEREO_COUNT>
0

> <PUBCHEM_ISOTOPIC_ATOM_COUNT>
0

> <PUBCHEM_COMPONENT_COUNT>
1

> <PUBCHEM_CACTVS_TAUTO_COUNT>
-1

> <PUBCHEM_COORDINATE_TYPE>
1
5
255

> <PUBCHEM_BONDANNOTATIONS>
26  11  5
29  2  6
21  22  5
38  39  8
38  40  8
39  41  8
40  42  8
41  43  8
42  43  8
19  8  6
23  9  5

$$$$
