SV_J10_0002
  -OEChem-07172407042D

 16 17  0     0  0  0  0  0  0999 V2000
    3.7320   -1.8776    0.0000 Br  0  0  0  0  0  0  0  0  0  0  0  0
    2.0000    1.1224    0.0000 Br  0  0  0  0  0  0  0  0  0  0  0  0
    5.8550    1.8776    0.0000 O   0  0  0  0  0  0  0  0  0  0  0  0
    7.1279    0.1224    0.0000 O   0  0  0  0  0  0  0  0  0  0  0  0
    5.5443   -0.6824    0.0000 N   0  0  0  0  0  0  0  0  0  0  0  0
    4.5981   -0.3776    0.0000 C   0  0  0  0  0  0  0  0  0  0  0  0
    4.5981    0.6224    0.0000 C   0  0  0  0  0  0  0  0  0  0  0  0
    5.5443    0.9271    0.0000 C   0  0  0  0  0  0  0  0  0  0  0  0
    3.7320   -0.8776    0.0000 C   0  0  0  0  0  0  0  0  0  0  0  0
    3.7320    1.1224    0.0000 C   0  0  0  0  0  0  0  0  0  0  0  0
    6.1279    0.1224    0.0000 C   0  0  0  0  0  0  0  0  0  0  0  0
    2.8660   -0.3776    0.0000 C   0  0  0  0  0  0  0  0  0  0  0  0
    2.8660    0.6224    0.0000 C   0  0  0  0  0  0  0  0  0  0  0  0
    5.7369   -1.2717    0.0000 H   0  0  0  0  0  0  0  0  0  0  0  0
    3.7320    1.7424    0.0000 H   0  0  0  0  0  0  0  0  0  0  0  0
    2.3291   -0.6876    0.0000 H   0  0  0  0  0  0  0  0  0  0  0  0
  1  9  1  0  0  0  0
  2 13  1  0  0  0  0
  3  8  2  0  0  0  0
  4 11  2  0  0  0  0
  5  6  1  0  0  0  0
  5 11  1  0  0  0  0
  5 14  1  0  0  0  0
  6  7  2  0  0  0  0
  6  9  1  0  0  0  0
  7  8  1  0  0  0  0
  7 10  1  0  0  0  0
  8 11  1  0  0  0  0
  9 12  2  0  0  0  0
 10 13  2  0  0  0  0
 10 15  1  0  0  0  0
 12 13  1  0  0  0  0
 12 16  1  0  0  0  0
M  END
> <PUBCHEM_COMPOUND_CID>
1809920

> <PUBCHEM_COMPOUND_CANONICALIZED>
1

> <PUBCHEM_CACTVS_COMPLEXITY>
269

> <PUBCHEM_CACTVS_HBOND_ACCEPTOR>
2

> <PUBCHEM_CACTVS_HBOND_DONOR>
1

> <PUBCHEM_CACTVS_ROTATABLE_BOND>
0

> <PUBCHEM_CACTVS_SUBSKEYS>
AAADcQByMAAAGAAAAAAAAAAAAAAAAWAAAAAwAAAAAAAAAFgBAAAAHgBQAAABrAyBmAAwwILAAACIAqVSUACCAAAlAAQAiAGAROgIIDrAlbGEIYhghADIy9cciICOAAAgEAAiAAgAAEAgAEQAEAAAAAAAAA==

> <PUBCHEM_IUPAC_OPENEYE_NAME>
5,7-dibromoindoline-2,3-dione

> <PUBCHEM_IUPAC_CAS_NAME>
5,7-dibromo-1H-indole-2,3-dione

> <PUBCHEM_IUPAC_NAME_MARKUP>
5,7-dibromo-1<I>H</I>-indole-2,3-dione

> <PUBCHEM_IUPAC_NAME>
5,7-dibromo-1H-indole-2,3-dione

> <PUBCHEM_IUPAC_SYSTEMATIC_NAME>
5,7-bis(bromanyl)-1H-indole-2,3-dione

> <PUBCHEM_IUPAC_TRADITIONAL_NAME>
5,7-dibromoisatin

> <PUBCHEM_IUPAC_INCHI>
InChI=1S/C8H3Br2NO2/c9-3-1-4-6(5(10)2-3)11-8(13)7(4)12/h1-2H,(H,11,12,13)

> <PUBCHEM_IUPAC_INCHIKEY>
QCTZEHIRXZGGSD-UHFFFAOYSA-N

> <PUBCHEM_XLOGP3_AA>
2.1

> <PUBCHEM_EXACT_MASS>
304.85100

> <PUBCHEM_MOLECULAR_FORMULA>
C8H3Br2NO2

> <PUBCHEM_MOLECULAR_WEIGHT>
304.92

> <PUBCHEM_OPENEYE_CAN_SMILES>
C1=C(C=C(C2=C1C(=O)C(=O)N2)Br)Br

> <PUBCHEM_OPENEYE_ISO_SMILES>
C1=C(C=C(C2=C1C(=O)C(=O)N2)Br)Br

> <PUBCHEM_CACTVS_TPSA>
46.2

> <PUBCHEM_MONOISOTOPIC_WEIGHT>
302.85305

> <PUBCHEM_TOTAL_CHARGE>
0

> <PUBCHEM_HEAVY_ATOM_COUNT>
13

> <PUBCHEM_ATOM_DEF_STEREO_COUNT>
0

> <PUBCHEM_ATOM_UDEF_STEREO_COUNT>
0

> <PUBCHEM_BOND_DEF_STEREO_COUNT>
0

> <PUBCHEM_BOND_UDEF_STEREO_COUNT>
0

> <PUBCHEM_ISOTOPIC_ATOM_COUNT>
0

> <PUBCHEM_COMPONENT_COUNT>
1

> <PUBCHEM_CACTVS_TAUTO_COUNT>
-1

> <PUBCHEM_COORDINATE_TYPE>
1
5
255

> <PUBCHEM_BONDANNOTATIONS>
10  13  8
12  13  8
6  7  8
6  9  8
7  10  8
9  12  8

$$$$
